data_image0
_chemical_formula_structural       CN2XC23N2XC23N2XCN2XC3N2XC11N2XNXCNC8XN2C18N2XC2XN4XC10NXCN2XCNCNXN2X2N2C3XN3CNC8XN2CXNCNCNC15N2XC8XN2C5XN2C9NCXN2X2NC2X3N2XC8X2C11NCNC2X2C5NCNC6NX2N4XC3N2XC6NXCNCNC10NX2N2XN4XN3CNC3N2XN2CNC8X2C2NCNC5X2CN2XC2NCXNC2XN4X2N2C5NX2NX2NXCN2XNXCN2X2N2CXNX2C4X2NXCNXN2CX2C6NXN3XCNC6NXN2XN2C6NCN2X2N2C4NCN2CXN2XNX2NXN2X2N2CXN2XCN4XCN4X2NC3N4C5NCXN2X2NC6N2XNC10X2N2XNCNCN2X3C4XN3XNC2NX2NC4NCXNX3N2X3NX2NCNCNX2C9NXN2XC8X2C3NCN2XCN2CNCX2C2X3N4XC6X2C2NCXNC8NCNCXN2CN2XN2X3N3XC8X3N2C3NXCN2XNXCNX2NCXNCNCN2CNCNXN3X2N2C3NXN5XC2NXCNC6NXCNC4X3N2CNCXN2C7NCNC4N2X2NXN2X2N2CNC5X2C4NCXNXN2C5NCXNC2XN2CN2XN2XNXCN2CXNC4N4CNC7NCNC4NXCNC2XN2XCNXN2C8N2XN2CNC3NCNC4NXCNC5N2XC2X3N2CXNCNCNCNC4X4C4NXCNX2CN2XNCXN2XCN2X2NC6NXCNC2XN2X3C4X2NXCN2X2NC6XN4CNC7X4C4NXN3XCN2X2N2CNCXN3C2NX2NXN2C7NCXNC4XN2CNCNXN3CXNXN2C9X2C3N2XC3N4CN2CN3XNXN2CXN4XC4X2C2NCXNCN2XC11N2XC5N3XN2XCNC3N2XC2NXCN2CNC3XN2C3X2C4X4C2X2C3N2X2N2C3NCNC5X3N2C3NXCN2XCNXN2C5X4NCXN2XCNXN2CNCXNCNCN2XC6NXN2C2NCNCNCNCNC2NXN4XCN2XC6NCNXCNC2NCXN2X2N2XCNCNCN2CNCNC3NCXNC8X5N4XC2N2XN2XC5NCNCNC2X5N2CXN2C7N2XNC6NCXN2CXNC2X2NXCN2XCNC11N2XNCNC3XN2C3X3N2XC4X4C2NCNCNC7NXCNCNCNX2C7NCNC6NXN2XN2X2N2XC4NXCNCNXN2C11NCNCXN2XC2N5CNXCNCNCNCNC2NCXN2X3NXN2C2NXCNX2C6NX2NC2XN2CXN2XCN2X2NC2X2C7NCNCNC2NXCNXN3C2X2C2NX2NX2C2X2C6XN2XN2XNC2NCXN5C4N2XNCN2XC4XN2CXN2C3NCNC7X4C2NCXNC2X2C2N3XNCXN2CNCNXN2C6NCXNC3N2XC4X2C2NXCNX2C2XN2C8NCNC3NCNC6NXN4C6NCNC3XN3CNCNCN2CXNCN2XC5N2XC2XN2C3NCNCNX2N2CN3XNXCN2XCNC2X2CN2X3C3N2XNCXNX2NXCNC3NCNCNC4X2C2X2NXCNC2XN3C3NXN2CNXCNCNC4NCXNC4XN2X2N2CXNCN4X2N2CNC3XN2C3NCNX2NC4X4CNCN2CNXN3CXNC4X2C4X2C2NCXNX2C5N2XCNCN2X2N2C4NCNX2NCXNC14NCXNC4NCN3X3C2NX2NC8NCNC3NCNXCN2XN4CNCNXN2X3NCXN2XCN2X3NXN2C3N2XC3NCNC11N2XC2XN2CNCNCXNC4NXCNC8NCXN2CXNC2X4C2XN2CNCNXN2XNXN2CNCXNC2NX2N2C3X2CN2XNXCNCNC2XN3CNCNCNC8NCXNC3NCNC11N2XNCNC7NCXNC3N2XCNCN2XNX2NCNCN2CNCXN2CXNX2C6X2C2X2C16X2C6NXCNC2XN2XNXCNC7NCNC2XN2CX3N2X2NX4C10NCNC5NCNCNCNC15N4C4NCXN2XCNXN2CXN2XCNC4X2C6NCN3X2N2XNXN2C6NXCNC11NCNC8NXCNC4X2CNCNCNCN3XNX2C3N2X2N2XCN2CNC2N2XC2NX2N3XN2CXN2XC4NCXNC4NXCNCNCNX2C8NX2NC4NCNCX4C2X4N4CNXN2CNCXNC5NXN2CNCXNX2C5NXN3C3N2XC4NCXNC2X2NCNXCNC3N3XNC2NXCNC2NCNCNXN3CNCX2C2X2CNCNC5NCNX2C3NCN2CNC2NCNX4C4XN2C2N2XCNCN2CNCNCXNC4X2C4NX2NC5N3XNC4NCNCNXN2X2CNCNC2X2NXN2C2X2C6X2NCNCNC4NCN2X2N2CX2C12NXN2CN2CXNCNC4X2C3N2XNXCN2CXN2CNCX2C2NCNCXNC2NCNC4N2XNC3NXCNC2X2NX2NCN6XCNC6NCXNX2CNCNX2C4NXN3X2N2CXNC3NCNC2NCNC2N2XC6NXCNC2XN2XCN2X2NCN4CXNX2C2X2NCXNC4NXCNC2NCNCX2NXN3XN2XN2CXN2XCN2XC2X2C8XN2C3NXN2XNC4NCXNXN2CX4CN2XN3XNCNC3NXCN2CXN2XC4N4XN2CXNC6XN2CXN2CN3XC12NCXNC7NCNC3N4XN2XN3XN2XC4NCXN2XCNXN2C5X2C8NXCN2XC6NX2N2C8NCNCNCNC5N2X3CN2X4N2CX2C2X3N2CNXCNC2NCXN2XCNC3N2XNC3NXCN3XNXN4XCN2CXNCNCNC6X6C6XN2XN2XN2CNC3NCNCNCNC2N2X2NC6NCXNCNC2XN2C3NCXNC2X2C2X2NCXN2XCNCNX2C6NXN3CN2CNCNCN2X2NC3N2XC2NXCNCN2XC2XN2XCNC8X2C2NXCNC5N2XNCNCNXN2C2XN2CX2NCNCNXCN2CXNC4X2C2X2NCXNC4XN4X2N2X2N2C3NCXN2XCNCNCN2CNCNX2NC4NX2N2C2N3XNC6NCNC3NX2NC8N3XNCNC6NCNC2XN4X2NCNC2NXCN2CXN2X3C4NCXN2XCN2CXNCNCNX2C5N2XC6NCXNC5N2XC2XN2C9X2NXCNC2XN2CX2C2NCXNC2NX2N2CNCNXCNC2NCXNC6X2NXN2C2NX2N2CNXCN2XC8XN2XCN2XCN2XCNC2NCNCXNC6NCNCNXCNC2NCXNC4NCXNC12NCNCXNC2NCXNC2NCXNXN2C9NCXN2CXN2CXNC18NCXNFe5NiFeNiFeNiFeNi2Fe3Ni4FeNiFe3Ni2Fe3NiFe8Ni2Fe5Ni2FeNiFe2Ni2FeNi2Fe2Ni3Fe4NiFeNiFe3Ni2FeNiFe3NiFeNi2FeNiFe2NiFe2Ni4FeNi4Fe2Ni2FeNi2FeNi3Fe2NiFe3Ni3FeNi2Fe2Ni2Fe2NiFeNiFe2Ni2FeNiFeNi3FeNi2Fe2Ni4FeNiFeNiFe4NiFeNiFe3NiFeNiFe2NiFeNiFe2Ni2FeNi8Fe2Ni3Fe2NiFeNi5FeNiFeNiFeNiFe2Ni2FeNiFe2Ni2Fe3NiFe3Ni2Fe2NiFeNi2Fe4Ni3FeNi2FeNiFe2Ni4FeNiFeNiFe2NiFeNiFe2Ni2Fe2Ni3FeNi2Fe4Ni8Fe3NiFe2Ni2Fe4Ni2Fe5NiFe2Ni5FeNi2Fe3Ni2FeNiFeNi2Fe4Ni3FeNiFe2Ni2FeNi2FeNi3FeNi3Fe2NiFeNiFeNiFe4NiFeNi6FeNiFeNiFe4Ni2FeNiFe3NiFeNi4FeNi2FeNi4Fe7
_chemical_formula_sum              "C1950 N1300 X800 Fe200 Ni200"
_cell_length_a       110.7
_cell_length_b       110.7
_cell_length_c       20
_cell_angle_alpha    90
_cell_angle_beta     90
_cell_angle_gamma    120

_space_group_name_H-M_alt    "P 1"
_space_group_IT_number       1

loop_
  _space_group_symop_operation_xyz
  'x, y, z'

loop_
  _atom_site_type_symbol
  _atom_site_label
  _atom_site_symmetry_multiplicity
  _atom_site_fract_x
  _atom_site_fract_y
  _atom_site_fract_z
  _atom_site_occupancy
  C   C1        1.0  0.00000  0.00000  0.50000  1.0000
  N   N1        1.0  0.01481  0.00741  0.50000  1.0000
  N   N2        1.0  0.00000  0.02222  0.50000  1.0000
  X   X1        1.0  0.01481  0.02963  0.50000  1.0000
  C   C2        1.0  0.00000  0.04444  0.50000  1.0000
  C   C3        1.0  0.01481  0.05185  0.50000  1.0000
  C   C4        1.0  0.00000  0.06667  0.50000  1.0000
  C   C5        1.0  0.01481  0.07407  0.50000  1.0000
  C   C6        1.0  0.00000  0.08889  0.50000  1.0000
  C   C7        1.0  0.01481  0.09630  0.50000  1.0000
  C   C8        1.0  0.00000  0.11111  0.50000  1.0000
  C   C9        1.0  0.01481  0.11852  0.50000  1.0000
  C   C10       1.0  0.00000  0.13333  0.50000  1.0000
  C   C11       1.0  0.01481  0.14074  0.50000  1.0000
  C   C12       1.0  0.00000  0.15556  0.50000  1.0000
  C   C13       1.0  0.01481  0.16296  0.50000  1.0000
  C   C14       1.0  0.00000  0.17778  0.50000  1.0000
  C   C15       1.0  0.01481  0.18519  0.50000  1.0000
  C   C16       1.0  0.00000  0.20000  0.50000  1.0000
  C   C17       1.0  0.01481  0.20741  0.50000  1.0000
  C   C18       1.0  0.00000  0.22222  0.50000  1.0000
  C   C19       1.0  0.01481  0.22963  0.50000  1.0000
  C   C20       1.0  0.00000  0.24444  0.50000  1.0000
  C   C21       1.0  0.01481  0.25185  0.50000  1.0000
  C   C22       1.0  0.00000  0.26667  0.50000  1.0000
  C   C23       1.0  0.01481  0.27407  0.50000  1.0000
  C   C24       1.0  0.00000  0.28889  0.50000  1.0000
  N   N3        1.0  0.01481  0.29630  0.50000  1.0000
  N   N4        1.0  0.00000  0.31111  0.50000  1.0000
  X   X2        1.0  0.01481  0.31852  0.50000  1.0000
  C   C25       1.0  0.00000  0.33333  0.50000  1.0000
  C   C26       1.0  0.01481  0.34074  0.50000  1.0000
  C   C27       1.0  0.00000  0.35556  0.50000  1.0000
  C   C28       1.0  0.01481  0.36296  0.50000  1.0000
  C   C29       1.0  0.00000  0.37778  0.50000  1.0000
  C   C30       1.0  0.01481  0.38519  0.50000  1.0000
  C   C31       1.0  0.00000  0.40000  0.50000  1.0000
  C   C32       1.0  0.01481  0.40741  0.50000  1.0000
  C   C33       1.0  0.00000  0.42222  0.50000  1.0000
  C   C34       1.0  0.01481  0.42963  0.50000  1.0000
  C   C35       1.0  0.00000  0.44444  0.50000  1.0000
  C   C36       1.0  0.01481  0.45185  0.50000  1.0000
  C   C37       1.0  0.00000  0.46667  0.50000  1.0000
  C   C38       1.0  0.01481  0.47407  0.50000  1.0000
  C   C39       1.0  0.00000  0.48889  0.50000  1.0000
  C   C40       1.0  0.01481  0.49630  0.50000  1.0000
  C   C41       1.0  0.00000  0.51111  0.50000  1.0000
  C   C42       1.0  0.01481  0.51852  0.50000  1.0000
  C   C43       1.0  0.00000  0.53333  0.50000  1.0000
  C   C44       1.0  0.01481  0.54074  0.50000  1.0000
  C   C45       1.0  0.00000  0.55556  0.50000  1.0000
  C   C46       1.0  0.01481  0.56296  0.50000  1.0000
  C   C47       1.0  0.00000  0.57778  0.50000  1.0000
  N   N5        1.0  0.01481  0.58519  0.50000  1.0000
  N   N6        1.0  0.00000  0.60000  0.50000  1.0000
  X   X3        1.0  0.01481  0.60741  0.50000  1.0000
  C   C48       1.0  0.00000  0.62222  0.50000  1.0000
  N   N7        1.0  0.01481  0.62963  0.50000  1.0000
  N   N8        1.0  0.00000  0.64444  0.50000  1.0000
  X   X4        1.0  0.01481  0.65185  0.50000  1.0000
  C   C49       1.0  0.00000  0.66667  0.50000  1.0000
  C   C50       1.0  0.01481  0.67407  0.50000  1.0000
  C   C51       1.0  0.00000  0.68889  0.50000  1.0000
  N   N9        1.0  0.01481  0.69630  0.50000  1.0000
  N   N10       1.0  0.00000  0.71111  0.50000  1.0000
  X   X5        1.0  0.01481  0.71852  0.50000  1.0000
  C   C52       1.0  0.00000  0.73333  0.50000  1.0000
  C   C53       1.0  0.01481  0.74074  0.50000  1.0000
  C   C54       1.0  0.00000  0.75556  0.50000  1.0000
  C   C55       1.0  0.01481  0.76296  0.50000  1.0000
  C   C56       1.0  0.00000  0.77778  0.50000  1.0000
  C   C57       1.0  0.01481  0.78519  0.50000  1.0000
  C   C58       1.0  0.00000  0.80000  0.50000  1.0000
  C   C59       1.0  0.01481  0.80741  0.50000  1.0000
  C   C60       1.0  0.00000  0.82222  0.50000  1.0000
  C   C61       1.0  0.01481  0.82963  0.50000  1.0000
  C   C62       1.0  0.00000  0.84444  0.50000  1.0000
  N   N11       1.0  0.01481  0.85185  0.50000  1.0000
  N   N12       1.0  0.00000  0.86667  0.50000  1.0000
  X   X6        1.0  0.01481  0.87407  0.50000  1.0000
  N   N13       1.0  0.00000  0.88889  0.50000  1.0000
  X   X7        1.0  0.01481  0.89630  0.50000  1.0000
  C   C63       1.0  1.00000  0.91111  0.50000  1.0000
  N   N14       1.0  0.01481  0.91852  0.50000  1.0000
  C   C64       1.0  0.00000  0.93333  0.50000  1.0000
  C   C65       1.0  0.01481  0.94074  0.50000  1.0000
  C   C66       1.0  0.00000  0.95556  0.50000  1.0000
  C   C67       1.0  0.01481  0.96296  0.50000  1.0000
  C   C68       1.0  0.00000  0.97778  0.50000  1.0000
  C   C69       1.0  0.01481  0.98519  0.50000  1.0000
  C   C70       1.0  0.02222  0.00000  0.50000  1.0000
  C   C71       1.0  0.03704  0.00741  0.50000  1.0000
  X   X8        1.0  0.02222  0.02222  0.50000  1.0000
  N   N15       1.0  0.03704  0.02963  0.50000  1.0000
  N   N16       1.0  0.02222  0.04444  0.50000  1.0000
  C   C72       1.0  0.03704  0.05185  0.50000  1.0000
  C   C73       1.0  0.02222  0.06667  0.50000  1.0000
  C   C74       1.0  0.03704  0.07407  0.50000  1.0000
  C   C75       1.0  0.02222  0.08889  0.50000  1.0000
  C   C76       1.0  0.03704  0.09630  0.50000  1.0000
  C   C77       1.0  0.02222  0.11111  0.50000  1.0000
  C   C78       1.0  0.03704  0.11852  0.50000  1.0000
  C   C79       1.0  0.02222  0.13333  0.50000  1.0000
  C   C80       1.0  0.03704  0.14074  0.50000  1.0000
  C   C81       1.0  0.02222  0.15556  0.50000  1.0000
  C   C82       1.0  0.03704  0.16296  0.50000  1.0000
  C   C83       1.0  0.02222  0.17778  0.50000  1.0000
  C   C84       1.0  0.03704  0.18519  0.50000  1.0000
  C   C85       1.0  0.02222  0.20000  0.50000  1.0000
  C   C86       1.0  0.03704  0.20741  0.50000  1.0000
  C   C87       1.0  0.02222  0.22222  0.50000  1.0000
  C   C88       1.0  0.03704  0.22963  0.50000  1.0000
  C   C89       1.0  0.02222  0.24444  0.50000  1.0000
  N   N17       1.0  0.03704  0.25185  0.50000  1.0000
  N   N18       1.0  0.02222  0.26667  0.50000  1.0000
  X   X9        1.0  0.03704  0.27407  0.50000  1.0000
  C   C90       1.0  0.02222  0.28889  0.50000  1.0000
  C   C91       1.0  0.03704  0.29630  0.50000  1.0000
  X   X10       1.0  0.02222  0.31111  0.50000  1.0000
  N   N19       1.0  0.03704  0.31852  0.50000  1.0000
  N   N20       1.0  0.02222  0.33333  0.50000  1.0000
  N   N21       1.0  0.03704  0.34074  0.50000  1.0000
  N   N22       1.0  0.02222  0.35556  0.50000  1.0000
  X   X11       1.0  0.03704  0.36296  0.50000  1.0000
  C   C92       1.0  0.02222  0.37778  0.50000  1.0000
  C   C93       1.0  0.03704  0.38519  0.50000  1.0000
  C   C94       1.0  0.02222  0.40000  0.50000  1.0000
  C   C95       1.0  0.03704  0.40741  0.50000  1.0000
  C   C96       1.0  0.02222  0.42222  0.50000  1.0000
  C   C97       1.0  0.03704  0.42963  0.50000  1.0000
  C   C98       1.0  0.02222  0.44444  0.50000  1.0000
  C   C99       1.0  0.03704  0.45185  0.50000  1.0000
  C   C100      1.0  0.02222  0.46667  0.50000  1.0000
  C   C101      1.0  0.03704  0.47407  0.50000  1.0000
  N   N23       1.0  0.02222  0.48889  0.50000  1.0000
  X   X12       1.0  0.03704  0.49630  0.50000  1.0000
  C   C102      1.0  0.02222  0.51111  0.50000  1.0000
  N   N24       1.0  0.03704  0.51852  0.50000  1.0000
  N   N25       1.0  0.02222  0.53333  0.50000  1.0000
  X   X13       1.0  0.03704  0.54074  0.50000  1.0000
  C   C103      1.0  0.02222  0.55556  0.50000  1.0000
  N   N26       1.0  0.03704  0.56296  0.50000  1.0000
  C   C104      1.0  0.02222  0.57778  0.50000  1.0000
  N   N27       1.0  0.03704  0.58519  0.50000  1.0000
  X   X14       1.0  0.02222  0.60000  0.50000  1.0000
  N   N28       1.0  0.03704  0.60741  0.50000  1.0000
  N   N29       1.0  0.02222  0.62222  0.50000  1.0000
  X   X15       1.0  0.03704  0.62963  0.50000  1.0000
  X   X16       1.0  0.02222  0.64444  0.50000  1.0000
  N   N30       1.0  0.03704  0.65185  0.50000  1.0000
  N   N31       1.0  0.02222  0.66667  0.50000  1.0000
  C   C105      1.0  0.03704  0.67407  0.50000  1.0000
  C   C106      1.0  0.02222  0.68889  0.50000  1.0000
  C   C107      1.0  0.03704  0.69630  0.50000  1.0000
  X   X17       1.0  0.02222  0.71111  0.50000  1.0000
  N   N32       1.0  0.03704  0.71852  0.50000  1.0000
  N   N33       1.0  0.02222  0.73333  0.50000  1.0000
  N   N34       1.0  0.03704  0.74074  0.50000  1.0000
  C   C108      1.0  0.02222  0.75556  0.50000  1.0000
  N   N35       1.0  0.03704  0.76296  0.50000  1.0000
  C   C109      1.0  0.02222  0.77778  0.50000  1.0000
  C   C110      1.0  0.03704  0.78519  0.50000  1.0000
  C   C111      1.0  0.02222  0.80000  0.50000  1.0000
  C   C112      1.0  0.03704  0.80741  0.50000  1.0000
  C   C113      1.0  0.02222  0.82222  0.50000  1.0000
  C   C114      1.0  0.03704  0.82963  0.50000  1.0000
  C   C115      1.0  0.02222  0.84444  0.50000  1.0000
  C   C116      1.0  0.03704  0.85185  0.50000  1.0000
  X   X18       1.0  0.02222  0.86667  0.50000  1.0000
  N   N36       1.0  0.03704  0.87407  0.50000  1.0000
  N   N37       1.0  0.02222  0.88889  0.50000  1.0000
  C   C117      1.0  0.03704  0.89630  0.50000  1.0000
  X   X19       1.0  0.02222  0.91111  0.50000  1.0000
  N   N38       1.0  0.03704  0.91852  0.50000  1.0000
  C   C118      1.0  0.02222  0.93333  0.50000  1.0000
  N   N39       1.0  0.03704  0.94074  0.50000  1.0000
  C   C119      1.0  0.02222  0.95556  0.50000  1.0000
  N   N40       1.0  0.03704  0.96296  0.50000  1.0000
  C   C120      1.0  0.02222  0.97778  0.50000  1.0000
  C   C121      1.0  0.03704  0.98519  0.50000  1.0000
  C   C122      1.0  0.04444  0.00000  0.50000  1.0000
  C   C123      1.0  0.05926  0.00741  0.50000  1.0000
  C   C124      1.0  0.04444  0.02222  0.50000  1.0000
  C   C125      1.0  0.05926  0.02963  0.50000  1.0000
  C   C126      1.0  0.04444  0.04444  0.50000  1.0000
  C   C127      1.0  0.05926  0.05185  0.50000  1.0000
  C   C128      1.0  0.04444  0.06667  0.50000  1.0000
  C   C129      1.0  0.05926  0.07407  0.50000  1.0000
  C   C130      1.0  0.04444  0.08889  0.50000  1.0000
  C   C131      1.0  0.05926  0.09630  0.50000  1.0000
  C   C132      1.0  0.04444  0.11111  0.50000  1.0000
  C   C133      1.0  0.05926  0.11852  0.50000  1.0000
  C   C134      1.0  0.04444  0.13333  0.50000  1.0000
  N   N41       1.0  0.05926  0.14074  0.50000  1.0000
  N   N42       1.0  0.04444  0.15556  0.50000  1.0000
  X   X20       1.0  0.05926  0.16296  0.50000  1.0000
  C   C135      1.0  0.04444  0.17778  0.50000  1.0000
  C   C136      1.0  0.05926  0.18519  0.50000  1.0000
  C   C137      1.0  0.04444  0.20000  0.50000  1.0000
  C   C138      1.0  0.05926  0.20741  0.50000  1.0000
  C   C139      1.0  0.04444  0.22222  0.50000  1.0000
  C   C140      1.0  0.05926  0.22963  0.50000  1.0000
  C   C141      1.0  0.04444  0.24444  0.50000  1.0000
  C   C142      1.0  0.05926  0.25185  0.50000  1.0000
  X   X21       1.0  0.04444  0.26667  0.50000  1.0000
  N   N43       1.0  0.05926  0.27407  0.50000  1.0000
  N   N44       1.0  0.04444  0.28889  0.50000  1.0000
  C   C143      1.0  0.05926  0.29630  0.50000  1.0000
  C   C144      1.0  0.04444  0.31111  0.50000  1.0000
  C   C145      1.0  0.05926  0.31852  0.50000  1.0000
  C   C146      1.0  0.04444  0.33333  0.50000  1.0000
  C   C147      1.0  0.05926  0.34074  0.50000  1.0000
  X   X22       1.0  0.04444  0.35556  0.50000  1.0000
  N   N45       1.0  0.05926  0.36296  0.50000  1.0000
  N   N46       1.0  0.04444  0.37778  0.50000  1.0000
  C   C148      1.0  0.05926  0.38519  0.50000  1.0000
  C   C149      1.0  0.04444  0.40000  0.50000  1.0000
  C   C150      1.0  0.05926  0.40741  0.50000  1.0000
  C   C151      1.0  0.04444  0.42222  0.50000  1.0000
  C   C152      1.0  0.05926  0.42963  0.50000  1.0000
  C   C153      1.0  0.04444  0.44444  0.50000  1.0000
  C   C154      1.0  0.05926  0.45185  0.50000  1.0000
  C   C155      1.0  0.04444  0.46667  0.50000  1.0000
  C   C156      1.0  0.05926  0.47407  0.50000  1.0000
  N   N47       1.0  0.04444  0.48889  0.50000  1.0000
  C   C157      1.0  0.05926  0.49630  0.50000  1.0000
  X   X23       1.0  0.04444  0.51111  0.50000  1.0000
  N   N48       1.0  0.05926  0.51852  0.50000  1.0000
  N   N49       1.0  0.04444  0.53333  0.50000  1.0000
  X   X24       1.0  0.05926  0.54074  0.50000  1.0000
  X   X25       1.0  0.04444  0.55556  0.50000  1.0000
  N   N50       1.0  0.05926  0.56296  0.50000  1.0000
  C   C158      1.0  0.04444  0.57778  0.50000  1.0000
  C   C159      1.0  0.05926  0.58519  0.50000  1.0000
  X   X26       1.0  0.04444  0.60000  0.50000  1.0000
  X   X27       1.0  0.05926  0.60741  0.50000  1.0000
  X   X28       1.0  0.04444  0.62222  0.50000  1.0000
  N   N51       1.0  0.05926  0.62963  0.50000  1.0000
  N   N52       1.0  0.04444  0.64444  0.50000  1.0000
  X   X29       1.0  0.05926  0.65185  0.50000  1.0000
  C   C160      1.0  0.04444  0.66667  0.50000  1.0000
  C   C161      1.0  0.05926  0.67407  0.50000  1.0000
  C   C162      1.0  0.04444  0.68889  0.50000  1.0000
  C   C163      1.0  0.05926  0.69630  0.50000  1.0000
  C   C164      1.0  0.04444  0.71111  0.50000  1.0000
  C   C165      1.0  0.05926  0.71852  0.50000  1.0000
  C   C166      1.0  0.04444  0.73333  0.50000  1.0000
  C   C167      1.0  0.05926  0.74074  0.50000  1.0000
  X   X30       1.0  0.04444  0.75556  0.50000  1.0000
  X   X31       1.0  0.05926  0.76296  0.50000  1.0000
  C   C168      1.0  0.04444  0.77778  0.50000  1.0000
  C   C169      1.0  0.05926  0.78519  0.50000  1.0000
  C   C170      1.0  0.04444  0.80000  0.50000  1.0000
  C   C171      1.0  0.05926  0.80741  0.50000  1.0000
  C   C172      1.0  0.04444  0.82222  0.50000  1.0000
  C   C173      1.0  0.05926  0.82963  0.50000  1.0000
  C   C174      1.0  0.04444  0.84444  0.50000  1.0000
  C   C175      1.0  0.05926  0.85185  0.50000  1.0000
  C   C176      1.0  0.04444  0.86667  0.50000  1.0000
  C   C177      1.0  0.05926  0.87407  0.50000  1.0000
  C   C178      1.0  0.04444  0.88889  0.50000  1.0000
  N   N53       1.0  0.05926  0.89630  0.50000  1.0000
  C   C179      1.0  0.04444  0.91111  0.50000  1.0000
  N   N54       1.0  0.05926  0.91852  0.50000  1.0000
  C   C180      1.0  0.04444  0.93333  0.50000  1.0000
  C   C181      1.0  0.05926  0.94074  0.50000  1.0000
  X   X32       1.0  0.04444  0.95556  0.50000  1.0000
  X   X33       1.0  0.05926  0.96296  0.50000  1.0000
  C   C182      1.0  0.04444  0.97778  0.50000  1.0000
  C   C183      1.0  0.05926  0.98519  0.50000  1.0000
  C   C184      1.0  0.06667  0.00000  0.50000  1.0000
  C   C185      1.0  0.08148  0.00741  0.50000  1.0000
  C   C186      1.0  0.06667  0.02222  0.50000  1.0000
  N   N55       1.0  0.08148  0.02963  0.50000  1.0000
  C   C187      1.0  0.06667  0.04444  0.50000  1.0000
  N   N56       1.0  0.08148  0.05185  0.50000  1.0000
  C   C188      1.0  0.06667  0.06667  0.50000  1.0000
  C   C189      1.0  0.08148  0.07407  0.50000  1.0000
  C   C190      1.0  0.06667  0.08889  0.50000  1.0000
  C   C191      1.0  0.08148  0.09630  0.50000  1.0000
  C   C192      1.0  0.06667  0.11111  0.50000  1.0000
  C   C193      1.0  0.08148  0.11852  0.50000  1.0000
  N   N57       1.0  0.06667  0.13333  0.50000  1.0000
  X   X34       1.0  0.08148  0.14074  0.50000  1.0000
  X   X35       1.0  0.06667  0.15556  0.50000  1.0000
  N   N58       1.0  0.08148  0.16296  0.50000  1.0000
  N   N59       1.0  0.06667  0.17778  0.50000  1.0000
  N   N60       1.0  0.08148  0.18519  0.50000  1.0000
  N   N61       1.0  0.06667  0.20000  0.50000  1.0000
  X   X36       1.0  0.08148  0.20741  0.50000  1.0000
  C   C194      1.0  0.06667  0.22222  0.50000  1.0000
  C   C195      1.0  0.08148  0.22963  0.50000  1.0000
  C   C196      1.0  0.06667  0.24444  0.50000  1.0000
  N   N62       1.0  0.08148  0.25185  0.50000  1.0000
  N   N63       1.0  0.06667  0.26667  0.50000  1.0000
  X   X37       1.0  0.08148  0.27407  0.50000  1.0000
  C   C197      1.0  0.06667  0.28889  0.50000  1.0000
  C   C198      1.0  0.08148  0.29630  0.50000  1.0000
  C   C199      1.0  0.06667  0.31111  0.50000  1.0000
  C   C200      1.0  0.08148  0.31852  0.50000  1.0000
  C   C201      1.0  0.06667  0.33333  0.50000  1.0000
  C   C202      1.0  0.08148  0.34074  0.50000  1.0000
  N   N64       1.0  0.06667  0.35556  0.50000  1.0000
  X   X38       1.0  0.08148  0.36296  0.50000  1.0000
  C   C203      1.0  0.06667  0.37778  0.50000  1.0000
  N   N65       1.0  0.08148  0.38519  0.50000  1.0000
  C   C204      1.0  0.06667  0.40000  0.50000  1.0000
  N   N66       1.0  0.08148  0.40741  0.50000  1.0000
  C   C205      1.0  0.06667  0.42222  0.50000  1.0000
  C   C206      1.0  0.08148  0.42963  0.50000  1.0000
  C   C207      1.0  0.06667  0.44444  0.50000  1.0000
  C   C208      1.0  0.08148  0.45185  0.50000  1.0000
  C   C209      1.0  0.06667  0.46667  0.50000  1.0000
  C   C210      1.0  0.08148  0.47407  0.50000  1.0000
  C   C211      1.0  0.06667  0.48889  0.50000  1.0000
  C   C212      1.0  0.08148  0.49630  0.50000  1.0000
  C   C213      1.0  0.06667  0.51111  0.50000  1.0000
  C   C214      1.0  0.08148  0.51852  0.50000  1.0000
  N   N67       1.0  0.06667  0.53333  0.50000  1.0000
  X   X39       1.0  0.08148  0.54074  0.50000  1.0000
  X   X40       1.0  0.06667  0.55556  0.50000  1.0000
  N   N68       1.0  0.08148  0.56296  0.50000  1.0000
  N   N69       1.0  0.06667  0.57778  0.50000  1.0000
  X   X41       1.0  0.08148  0.58519  0.50000  1.0000
  N   N70       1.0  0.06667  0.60000  0.50000  1.0000
  N   N71       1.0  0.08148  0.60741  0.50000  1.0000
  N   N72       1.0  0.06667  0.62222  0.50000  1.0000
  N   N73       1.0  0.08148  0.62963  0.50000  1.0000
  X   X42       1.0  0.06667  0.64444  0.50000  1.0000
  N   N74       1.0  0.08148  0.65185  0.50000  1.0000
  N   N75       1.0  0.06667  0.66667  0.50000  1.0000
  N   N76       1.0  0.08148  0.67407  0.50000  1.0000
  C   C215      1.0  0.06667  0.68889  0.50000  1.0000
  N   N77       1.0  0.08148  0.69630  0.50000  1.0000
  C   C216      1.0  0.06667  0.71111  0.50000  1.0000
  C   C217      1.0  0.08148  0.71852  0.50000  1.0000
  C   C218      1.0  0.06667  0.73333  0.50000  1.0000
  N   N78       1.0  0.08148  0.74074  0.50000  1.0000
  N   N79       1.0  0.06667  0.75556  0.50000  1.0000
  X   X43       1.0  0.08148  0.76296  0.50000  1.0000
  N   N80       1.0  0.06667  0.77778  0.50000  1.0000
  N   N81       1.0  0.08148  0.78519  0.50000  1.0000
  C   C219      1.0  0.06667  0.80000  0.50000  1.0000
  N   N82       1.0  0.08148  0.80741  0.50000  1.0000
  C   C220      1.0  0.06667  0.82222  0.50000  1.0000
  C   C221      1.0  0.08148  0.82963  0.50000  1.0000
  C   C222      1.0  0.06667  0.84444  0.50000  1.0000
  C   C223      1.0  0.08148  0.85185  0.50000  1.0000
  C   C224      1.0  0.06667  0.86667  0.50000  1.0000
  C   C225      1.0  0.08148  0.87407  0.50000  1.0000
  C   C226      1.0  0.06667  0.88889  0.50000  1.0000
  C   C227      1.0  0.08148  0.89630  0.50000  1.0000
  X   X44       1.0  0.06667  0.91111  0.50000  1.0000
  X   X45       1.0  0.08148  0.91852  0.50000  1.0000
  C   C228      1.0  0.06667  0.93333  0.50000  1.0000
  C   C229      1.0  0.08148  0.94074  0.50000  1.0000
  N   N83       1.0  0.06667  0.95556  0.50000  1.0000
  C   C230      1.0  0.08148  0.96296  0.50000  1.0000
  N   N84       1.0  0.06667  0.97778  0.50000  1.0000
  C   C231      1.0  0.08148  0.98519  0.50000  1.0000
  C   C232      1.0  0.08889  0.00000  0.50000  1.0000
  C   C233      1.0  0.10370  0.00741  0.50000  1.0000
  C   C234      1.0  0.08889  0.02222  0.50000  1.0000
  C   C235      1.0  0.10370  0.02963  0.50000  1.0000
  X   X46       1.0  0.08889  0.04444  0.50000  1.0000
  X   X47       1.0  0.10370  0.05185  0.50000  1.0000
  C   C236      1.0  0.08889  0.06667  0.50000  1.0000
  N   N85       1.0  0.10370  0.07407  0.50000  1.0000
  N   N86       1.0  0.08889  0.08889  0.50000  1.0000
  X   X48       1.0  0.10370  0.09630  0.50000  1.0000
  C   C237      1.0  0.08889  0.11111  0.50000  1.0000
  C   C238      1.0  0.10370  0.11852  0.50000  1.0000
  N   N87       1.0  0.08889  0.13333  0.50000  1.0000
  C   C239      1.0  0.10370  0.14074  0.50000  1.0000
  X   X49       1.0  0.08889  0.15556  0.50000  1.0000
  N   N88       1.0  0.10370  0.16296  0.50000  1.0000
  C   C240      1.0  0.08889  0.17778  0.50000  1.0000
  C   C241      1.0  0.10370  0.18519  0.50000  1.0000
  X   X50       1.0  0.08889  0.20000  0.50000  1.0000
  N   N89       1.0  0.10370  0.20741  0.50000  1.0000
  N   N90       1.0  0.08889  0.22222  0.50000  1.0000
  N   N91       1.0  0.10370  0.22963  0.50000  1.0000
  N   N92       1.0  0.08889  0.24444  0.50000  1.0000
  X   X51       1.0  0.10370  0.25185  0.50000  1.0000
  X   X52       1.0  0.08889  0.26667  0.50000  1.0000
  N   N93       1.0  0.10370  0.27407  0.50000  1.0000
  N   N94       1.0  0.08889  0.28889  0.50000  1.0000
  C   C242      1.0  0.10370  0.29630  0.50000  1.0000
  C   C243      1.0  0.08889  0.31111  0.50000  1.0000
  C   C244      1.0  0.10370  0.31852  0.50000  1.0000
  C   C245      1.0  0.08889  0.33333  0.50000  1.0000
  C   C246      1.0  0.10370  0.34074  0.50000  1.0000
  N   N95       1.0  0.08889  0.35556  0.50000  1.0000
  X   X53       1.0  0.10370  0.36296  0.50000  1.0000
  X   X54       1.0  0.08889  0.37778  0.50000  1.0000
  N   N96       1.0  0.10370  0.38519  0.50000  1.0000
  X   X55       1.0  0.08889  0.40000  0.50000  1.0000
  X   X56       1.0  0.10370  0.40741  0.50000  1.0000
  N   N97       1.0  0.08889  0.42222  0.50000  1.0000
  X   X57       1.0  0.10370  0.42963  0.50000  1.0000
  C   C247      1.0  0.08889  0.44444  0.50000  1.0000
  N   N98       1.0  0.10370  0.45185  0.50000  1.0000
  N   N99       1.0  0.08889  0.46667  0.50000  1.0000
  X   X58       1.0  0.10370  0.47407  0.50000  1.0000
  N   N100      1.0  0.08889  0.48889  0.50000  1.0000
  X   X59       1.0  0.10370  0.49630  0.50000  1.0000
  C   C248      1.0  0.08889  0.51111  0.50000  1.0000
  N   N101      1.0  0.10370  0.51852  0.50000  1.0000
  N   N102      1.0  0.08889  0.53333  0.50000  1.0000
  X   X60       1.0  0.10370  0.54074  0.50000  1.0000
  X   X61       1.0  0.08889  0.55556  0.50000  1.0000
  N   N103      1.0  0.10370  0.56296  0.50000  1.0000
  N   N104      1.0  0.08889  0.57778  0.50000  1.0000
  C   C249      1.0  0.10370  0.58519  0.50000  1.0000
  X   X62       1.0  0.08889  0.60000  0.50000  1.0000
  N   N105      1.0  0.10370  0.60741  0.50000  1.0000
  X   X63       1.0  0.08889  0.62222  0.50000  1.0000
  X   X64       1.0  0.10370  0.62963  0.50000  1.0000
  C   C250      1.0  0.08889  0.64444  0.50000  1.0000
  C   C251      1.0  0.10370  0.65185  0.50000  1.0000
  C   C252      1.0  0.08889  0.66667  0.50000  1.0000
  C   C253      1.0  0.10370  0.67407  0.50000  1.0000
  X   X65       1.0  0.08889  0.68889  0.50000  1.0000
  X   X66       1.0  0.10370  0.69630  0.50000  1.0000
  N   N106      1.0  0.08889  0.71111  0.50000  1.0000
  X   X67       1.0  0.10370  0.71852  0.50000  1.0000
  C   C254      1.0  0.08889  0.73333  0.50000  1.0000
  N   N107      1.0  0.10370  0.74074  0.50000  1.0000
  X   X68       1.0  0.08889  0.75556  0.50000  1.0000
  N   N108      1.0  0.10370  0.76296  0.50000  1.0000
  N   N109      1.0  0.08889  0.77778  0.50000  1.0000
  C   C255      1.0  0.10370  0.78519  0.50000  1.0000
  X   X69       1.0  0.08889  0.80000  0.50000  1.0000
  X   X70       1.0  0.10370  0.80741  0.50000  1.0000
  C   C256      1.0  0.08889  0.82222  0.50000  1.0000
  C   C257      1.0  0.10370  0.82963  0.50000  1.0000
  C   C258      1.0  0.08889  0.84444  0.50000  1.0000
  C   C259      1.0  0.10370  0.85185  0.50000  1.0000
  C   C260      1.0  0.08889  0.86667  0.50000  1.0000
  C   C261      1.0  0.10370  0.87407  0.50000  1.0000
  N   N110      1.0  0.08889  0.88889  0.50000  1.0000
  X   X71       1.0  0.10370  0.89630  0.50000  1.0000
  N   N111      1.0  0.08889  0.91111  0.50000  1.0000
  N   N112      1.0  0.10370  0.91852  0.50000  1.0000
  N   N113      1.0  0.08889  0.93333  0.50000  1.0000
  X   X72       1.0  0.10370  0.94074  0.50000  1.0000
  C   C262      1.0  0.08889  0.95556  0.50000  1.0000
  N   N114      1.0  0.10370  0.96296  0.50000  1.0000
  C   C263      1.0  0.08889  0.97778  0.50000  1.0000
  C   C264      1.0  0.10370  0.98519  0.50000  1.0000
  C   C265      1.0  0.11111  0.00000  0.50000  1.0000
  C   C266      1.0  0.12593  0.00741  0.50000  1.0000
  C   C267      1.0  0.11111  0.02222  0.50000  1.0000
  C   C268      1.0  0.12593  0.02963  0.50000  1.0000
  N   N115      1.0  0.11111  0.04444  0.50000  1.0000
  X   X73       1.0  0.12593  0.05185  0.50000  1.0000
  N   N116      1.0  0.11111  0.06667  0.50000  1.0000
  N   N117      1.0  0.12593  0.07407  0.50000  1.0000
  X   X74       1.0  0.11111  0.08889  0.50000  1.0000
  N   N118      1.0  0.12593  0.09630  0.50000  1.0000
  N   N119      1.0  0.11111  0.11111  0.50000  1.0000
  C   C269      1.0  0.12593  0.11852  0.50000  1.0000
  C   C270      1.0  0.11111  0.13333  0.50000  1.0000
  C   C271      1.0  0.12593  0.14074  0.50000  1.0000
  C   C272      1.0  0.11111  0.15556  0.50000  1.0000
  C   C273      1.0  0.12593  0.16296  0.50000  1.0000
  C   C274      1.0  0.11111  0.17778  0.50000  1.0000
  N   N120      1.0  0.12593  0.18519  0.50000  1.0000
  C   C275      1.0  0.11111  0.20000  0.50000  1.0000
  N   N121      1.0  0.12593  0.20741  0.50000  1.0000
  N   N122      1.0  0.11111  0.22222  0.50000  1.0000
  X   X75       1.0  0.12593  0.22963  0.50000  1.0000
  X   X76       1.0  0.11111  0.24444  0.50000  1.0000
  N   N123      1.0  0.12593  0.25185  0.50000  1.0000
  N   N124      1.0  0.11111  0.26667  0.50000  1.0000
  C   C276      1.0  0.12593  0.27407  0.50000  1.0000
  C   C277      1.0  0.11111  0.28889  0.50000  1.0000
  C   C278      1.0  0.12593  0.29630  0.50000  1.0000
  C   C279      1.0  0.11111  0.31111  0.50000  1.0000
  N   N125      1.0  0.12593  0.31852  0.50000  1.0000
  C   C280      1.0  0.11111  0.33333  0.50000  1.0000
  N   N126      1.0  0.12593  0.34074  0.50000  1.0000
  N   N127      1.0  0.11111  0.35556  0.50000  1.0000
  C   C281      1.0  0.12593  0.36296  0.50000  1.0000
  X   X77       1.0  0.11111  0.37778  0.50000  1.0000
  N   N128      1.0  0.12593  0.38519  0.50000  1.0000
  N   N129      1.0  0.11111  0.40000  0.50000  1.0000
  X   X78       1.0  0.12593  0.40741  0.50000  1.0000
  N   N130      1.0  0.11111  0.42222  0.50000  1.0000
  X   X79       1.0  0.12593  0.42963  0.50000  1.0000
  X   X80       1.0  0.11111  0.44444  0.50000  1.0000
  N   N131      1.0  0.12593  0.45185  0.50000  1.0000
  X   X81       1.0  0.11111  0.46667  0.50000  1.0000
  N   N132      1.0  0.12593  0.47407  0.50000  1.0000
  N   N133      1.0  0.11111  0.48889  0.50000  1.0000
  X   X82       1.0  0.12593  0.49630  0.50000  1.0000
  X   X83       1.0  0.11111  0.51111  0.50000  1.0000
  N   N134      1.0  0.12593  0.51852  0.50000  1.0000
  N   N135      1.0  0.11111  0.53333  0.50000  1.0000
  C   C282      1.0  0.12593  0.54074  0.50000  1.0000
  X   X84       1.0  0.11111  0.55556  0.50000  1.0000
  N   N136      1.0  0.12593  0.56296  0.50000  1.0000
  N   N137      1.0  0.11111  0.57778  0.50000  1.0000
  X   X85       1.0  0.12593  0.58519  0.50000  1.0000
  C   C283      1.0  0.11111  0.60000  0.50000  1.0000
  N   N138      1.0  0.12593  0.60741  0.50000  1.0000
  N   N139      1.0  0.11111  0.62222  0.50000  1.0000
  N   N140      1.0  0.12593  0.62963  0.50000  1.0000
  N   N141      1.0  0.11111  0.64444  0.50000  1.0000
  X   X86       1.0  0.12593  0.65185  0.50000  1.0000
  C   C284      1.0  0.11111  0.66667  0.50000  1.0000
  N   N142      1.0  0.12593  0.67407  0.50000  1.0000
  N   N143      1.0  0.11111  0.68889  0.50000  1.0000
  N   N144      1.0  0.12593  0.69630  0.50000  1.0000
  N   N145      1.0  0.11111  0.71111  0.50000  1.0000
  X   X87       1.0  0.12593  0.71852  0.50000  1.0000
  X   X88       1.0  0.11111  0.73333  0.50000  1.0000
  N   N146      1.0  0.12593  0.74074  0.50000  1.0000
  C   C285      1.0  0.11111  0.75556  0.50000  1.0000
  C   C286      1.0  0.12593  0.76296  0.50000  1.0000
  C   C287      1.0  0.11111  0.77778  0.50000  1.0000
  N   N147      1.0  0.12593  0.78519  0.50000  1.0000
  N   N148      1.0  0.11111  0.80000  0.50000  1.0000
  N   N149      1.0  0.12593  0.80741  0.50000  1.0000
  N   N150      1.0  0.11111  0.82222  0.50000  1.0000
  C   C288      1.0  0.12593  0.82963  0.50000  1.0000
  C   C289      1.0  0.11111  0.84444  0.50000  1.0000
  C   C290      1.0  0.12593  0.85185  0.50000  1.0000
  C   C291      1.0  0.11111  0.86667  0.50000  1.0000
  C   C292      1.0  0.12593  0.87407  0.50000  1.0000
  N   N151      1.0  0.11111  0.88889  0.50000  1.0000
  C   C293      1.0  0.12593  0.89630  0.50000  1.0000
  X   X89       1.0  0.11111  0.91111  0.50000  1.0000
  N   N152      1.0  0.12593  0.91852  0.50000  1.0000
  N   N153      1.0  0.11111  0.93333  0.50000  1.0000
  X   X90       1.0  0.12593  0.94074  0.50000  1.0000
  X   X91       1.0  0.11111  0.95556  0.50000  1.0000
  N   N154      1.0  0.12593  0.96296  0.50000  1.0000
  C   C294      1.0  0.11111  0.97778  0.50000  1.0000
  C   C295      1.0  0.12593  0.98519  0.50000  1.0000
  C   C296      1.0  0.13333  0.00000  0.50000  1.0000
  C   C297      1.0  0.14815  0.00741  0.50000  1.0000
  C   C298      1.0  0.13333  0.02222  0.50000  1.0000
  C   C299      1.0  0.14815  0.02963  0.50000  1.0000
  N   N155      1.0  0.13333  0.04444  0.50000  1.0000
  N   N156      1.0  0.14815  0.05185  0.50000  1.0000
  X   X92       1.0  0.13333  0.06667  0.50000  1.0000
  N   N157      1.0  0.14815  0.07407  0.50000  1.0000
  C   C300      1.0  0.13333  0.08889  0.50000  1.0000
  C   C301      1.0  0.14815  0.09630  0.50000  1.0000
  C   C302      1.0  0.13333  0.11111  0.50000  1.0000
  C   C303      1.0  0.14815  0.11852  0.50000  1.0000
  C   C304      1.0  0.13333  0.13333  0.50000  1.0000
  C   C305      1.0  0.14815  0.14074  0.50000  1.0000
  C   C306      1.0  0.13333  0.15556  0.50000  1.0000
  C   C307      1.0  0.14815  0.16296  0.50000  1.0000
  C   C308      1.0  0.13333  0.17778  0.50000  1.0000
  C   C309      1.0  0.14815  0.18519  0.50000  1.0000
  X   X93       1.0  0.13333  0.20000  0.50000  1.0000
  X   X94       1.0  0.14815  0.20741  0.50000  1.0000
  N   N158      1.0  0.13333  0.22222  0.50000  1.0000
  N   N159      1.0  0.14815  0.22963  0.50000  1.0000
  X   X95       1.0  0.13333  0.24444  0.50000  1.0000
  N   N160      1.0  0.14815  0.25185  0.50000  1.0000
  C   C310      1.0  0.13333  0.26667  0.50000  1.0000
  N   N161      1.0  0.14815  0.27407  0.50000  1.0000
  C   C311      1.0  0.13333  0.28889  0.50000  1.0000
  N   N162      1.0  0.14815  0.29630  0.50000  1.0000
  N   N163      1.0  0.13333  0.31111  0.50000  1.0000
  X   X96       1.0  0.14815  0.31852  0.50000  1.0000
  X   X97       1.0  0.13333  0.33333  0.50000  1.0000
  X   X98       1.0  0.14815  0.34074  0.50000  1.0000
  C   C312      1.0  0.13333  0.35556  0.50000  1.0000
  C   C313      1.0  0.14815  0.36296  0.50000  1.0000
  C   C314      1.0  0.13333  0.37778  0.50000  1.0000
  C   C315      1.0  0.14815  0.38519  0.50000  1.0000
  X   X99       1.0  0.13333  0.40000  0.50000  1.0000
  N   N164      1.0  0.14815  0.40741  0.50000  1.0000
  N   N165      1.0  0.13333  0.42222  0.50000  1.0000
  N   N166      1.0  0.14815  0.42963  0.50000  1.0000
  X   X100      1.0  0.13333  0.44444  0.50000  1.0000
  N   N167      1.0  0.14815  0.45185  0.50000  1.0000
  C   C316      1.0  0.13333  0.46667  0.50000  1.0000
  C   C317      1.0  0.14815  0.47407  0.50000  1.0000
  N   N168      1.0  0.13333  0.48889  0.50000  1.0000
  X   X101      1.0  0.14815  0.49630  0.50000  1.0000
  X   X102      1.0  0.13333  0.51111  0.50000  1.0000
  N   N169      1.0  0.14815  0.51852  0.50000  1.0000
  C   C318      1.0  0.13333  0.53333  0.50000  1.0000
  C   C319      1.0  0.14815  0.54074  0.50000  1.0000
  C   C320      1.0  0.13333  0.55556  0.50000  1.0000
  C   C321      1.0  0.14815  0.56296  0.50000  1.0000
  N   N170      1.0  0.13333  0.57778  0.50000  1.0000
  C   C322      1.0  0.14815  0.58519  0.50000  1.0000
  X   X103      1.0  0.13333  0.60000  0.50000  1.0000
  N   N171      1.0  0.14815  0.60741  0.50000  1.0000
  X   X104      1.0  0.13333  0.62222  0.50000  1.0000
  X   X105      1.0  0.14815  0.62963  0.50000  1.0000
  X   X106      1.0  0.13333  0.64444  0.50000  1.0000
  N   N172      1.0  0.14815  0.65185  0.50000  1.0000
  N   N173      1.0  0.13333  0.66667  0.50000  1.0000
  X   X107      1.0  0.14815  0.67407  0.50000  1.0000
  X   X108      1.0  0.13333  0.68889  0.50000  1.0000
  X   X109      1.0  0.14815  0.69630  0.50000  1.0000
  N   N174      1.0  0.13333  0.71111  0.50000  1.0000
  X   X110      1.0  0.14815  0.71852  0.50000  1.0000
  X   X111      1.0  0.13333  0.73333  0.50000  1.0000
  N   N175      1.0  0.14815  0.74074  0.50000  1.0000
  C   C323      1.0  0.13333  0.75556  0.50000  1.0000
  N   N176      1.0  0.14815  0.76296  0.50000  1.0000
  C   C324      1.0  0.13333  0.77778  0.50000  1.0000
  N   N177      1.0  0.14815  0.78519  0.50000  1.0000
  X   X112      1.0  0.13333  0.80000  0.50000  1.0000
  X   X113      1.0  0.14815  0.80741  0.50000  1.0000
  C   C325      1.0  0.13333  0.82222  0.50000  1.0000
  C   C326      1.0  0.14815  0.82963  0.50000  1.0000
  C   C327      1.0  0.13333  0.84444  0.50000  1.0000
  C   C328      1.0  0.14815  0.85185  0.50000  1.0000
  C   C329      1.0  0.13333  0.86667  0.50000  1.0000
  C   C330      1.0  0.14815  0.87407  0.50000  1.0000
  C   C331      1.0  0.13333  0.88889  0.50000  1.0000
  C   C332      1.0  0.14815  0.89630  0.50000  1.0000
  C   C333      1.0  0.13333  0.91111  0.50000  1.0000
  N   N178      1.0  0.14815  0.91852  0.50000  1.0000
  X   X114      1.0  0.13333  0.93333  0.50000  1.0000
  N   N179      1.0  0.14815  0.94074  0.50000  1.0000
  N   N180      1.0  0.13333  0.95556  0.50000  1.0000
  X   X115      1.0  0.14815  0.96296  0.50000  1.0000
  C   C334      1.0  0.13333  0.97778  0.50000  1.0000
  C   C335      1.0  0.14815  0.98519  0.50000  1.0000
  C   C336      1.0  0.15556  0.00000  0.50000  1.0000
  C   C337      1.0  0.17037  0.00741  0.50000  1.0000
  C   C338      1.0  0.15556  0.02222  0.50000  1.0000
  C   C339      1.0  0.17037  0.02963  0.50000  1.0000
  C   C340      1.0  0.15556  0.04444  0.50000  1.0000
  C   C341      1.0  0.17037  0.05185  0.50000  1.0000
  X   X116      1.0  0.15556  0.06667  0.50000  1.0000
  X   X117      1.0  0.17037  0.07407  0.50000  1.0000
  C   C342      1.0  0.15556  0.08889  0.50000  1.0000
  C   C343      1.0  0.17037  0.09630  0.50000  1.0000
  C   C344      1.0  0.15556  0.11111  0.50000  1.0000
  N   N181      1.0  0.17037  0.11852  0.50000  1.0000
  C   C345      1.0  0.15556  0.13333  0.50000  1.0000
  N   N182      1.0  0.17037  0.14074  0.50000  1.0000
  N   N183      1.0  0.15556  0.15556  0.50000  1.0000
  X   X118      1.0  0.17037  0.16296  0.50000  1.0000
  C   C346      1.0  0.15556  0.17778  0.50000  1.0000
  N   N184      1.0  0.17037  0.18519  0.50000  1.0000
  N   N185      1.0  0.15556  0.20000  0.50000  1.0000
  C   C347      1.0  0.17037  0.20741  0.50000  1.0000
  N   N186      1.0  0.15556  0.22222  0.50000  1.0000
  C   C348      1.0  0.17037  0.22963  0.50000  1.0000
  X   X119      1.0  0.15556  0.24444  0.50000  1.0000
  X   X120      1.0  0.17037  0.25185  0.50000  1.0000
  C   C349      1.0  0.15556  0.26667  0.50000  1.0000
  C   C350      1.0  0.17037  0.27407  0.50000  1.0000
  X   X121      1.0  0.15556  0.28889  0.50000  1.0000
  X   X122      1.0  0.17037  0.29630  0.50000  1.0000
  X   X123      1.0  0.15556  0.31111  0.50000  1.0000
  N   N187      1.0  0.17037  0.31852  0.50000  1.0000
  N   N188      1.0  0.15556  0.33333  0.50000  1.0000
  N   N189      1.0  0.17037  0.34074  0.50000  1.0000
  N   N190      1.0  0.15556  0.35556  0.50000  1.0000
  X   X124      1.0  0.17037  0.36296  0.50000  1.0000
  C   C351      1.0  0.15556  0.37778  0.50000  1.0000
  C   C352      1.0  0.17037  0.38519  0.50000  1.0000
  C   C353      1.0  0.15556  0.40000  0.50000  1.0000
  C   C354      1.0  0.17037  0.40741  0.50000  1.0000
  C   C355      1.0  0.15556  0.42222  0.50000  1.0000
  C   C356      1.0  0.17037  0.42963  0.50000  1.0000
  X   X125      1.0  0.15556  0.44444  0.50000  1.0000
  X   X126      1.0  0.17037  0.45185  0.50000  1.0000
  C   C357      1.0  0.15556  0.46667  0.50000  1.0000
  C   C358      1.0  0.17037  0.47407  0.50000  1.0000
  N   N191      1.0  0.15556  0.48889  0.50000  1.0000
  C   C359      1.0  0.17037  0.49630  0.50000  1.0000
  X   X127      1.0  0.15556  0.51111  0.50000  1.0000
  N   N192      1.0  0.17037  0.51852  0.50000  1.0000
  C   C360      1.0  0.15556  0.53333  0.50000  1.0000
  C   C361      1.0  0.17037  0.54074  0.50000  1.0000
  C   C362      1.0  0.15556  0.55556  0.50000  1.0000
  C   C363      1.0  0.17037  0.56296  0.50000  1.0000
  C   C364      1.0  0.15556  0.57778  0.50000  1.0000
  C   C365      1.0  0.17037  0.58519  0.50000  1.0000
  C   C366      1.0  0.15556  0.60000  0.50000  1.0000
  C   C367      1.0  0.17037  0.60741  0.50000  1.0000
  N   N193      1.0  0.15556  0.62222  0.50000  1.0000
  C   C368      1.0  0.17037  0.62963  0.50000  1.0000
  N   N194      1.0  0.15556  0.64444  0.50000  1.0000
  C   C369      1.0  0.17037  0.65185  0.50000  1.0000
  X   X128      1.0  0.15556  0.66667  0.50000  1.0000
  N   N195      1.0  0.17037  0.67407  0.50000  1.0000
  N   N196      1.0  0.15556  0.68889  0.50000  1.0000
  C   C370      1.0  0.17037  0.69630  0.50000  1.0000
  N   N197      1.0  0.15556  0.71111  0.50000  1.0000
  N   N198      1.0  0.17037  0.71852  0.50000  1.0000
  X   X129      1.0  0.15556  0.73333  0.50000  1.0000
  N   N199      1.0  0.17037  0.74074  0.50000  1.0000
  N   N200      1.0  0.15556  0.75556  0.50000  1.0000
  X   X130      1.0  0.17037  0.76296  0.50000  1.0000
  X   X131      1.0  0.15556  0.77778  0.50000  1.0000
  X   X132      1.0  0.17037  0.78519  0.50000  1.0000
  N   N201      1.0  0.15556  0.80000  0.50000  1.0000
  N   N202      1.0  0.17037  0.80741  0.50000  1.0000
  N   N203      1.0  0.15556  0.82222  0.50000  1.0000
  X   X133      1.0  0.17037  0.82963  0.50000  1.0000
  C   C371      1.0  0.15556  0.84444  0.50000  1.0000
  C   C372      1.0  0.17037  0.85185  0.50000  1.0000
  C   C373      1.0  0.15556  0.86667  0.50000  1.0000
  C   C374      1.0  0.17037  0.87407  0.50000  1.0000
  C   C375      1.0  0.15556  0.88889  0.50000  1.0000
  C   C376      1.0  0.17037  0.89630  0.50000  1.0000
  C   C377      1.0  0.15556  0.91111  0.50000  1.0000
  C   C378      1.0  0.17037  0.91852  0.50000  1.0000
  X   X134      1.0  0.15556  0.93333  0.50000  1.0000
  X   X135      1.0  0.17037  0.94074  0.50000  1.0000
  X   X136      1.0  0.15556  0.95556  0.50000  1.0000
  N   N204      1.0  0.17037  0.96296  0.50000  1.0000
  N   N205      1.0  0.15556  0.97778  0.50000  1.0000
  C   C379      1.0  0.17037  0.98519  0.50000  1.0000
  C   C380      1.0  0.17778  0.00000  0.50000  1.0000
  C   C381      1.0  0.19259  0.00741  0.50000  1.0000
  N   N206      1.0  0.17778  0.02222  0.50000  1.0000
  X   X137      1.0  0.19259  0.02963  0.50000  1.0000
  C   C382      1.0  0.17778  0.04444  0.50000  1.0000
  N   N207      1.0  0.19259  0.05185  0.50000  1.0000
  N   N208      1.0  0.17778  0.06667  0.50000  1.0000
  X   X138      1.0  0.19259  0.07407  0.50000  1.0000
  N   N209      1.0  0.17778  0.08889  0.50000  1.0000
  X   X139      1.0  0.19259  0.09630  0.50000  1.0000
  C   C383      1.0  0.17778  0.11111  0.50000  1.0000
  N   N210      1.0  0.19259  0.11852  0.50000  1.0000
  X   X140      1.0  0.17778  0.13333  0.50000  1.0000
  X   X141      1.0  0.19259  0.14074  0.50000  1.0000
  N   N211      1.0  0.17778  0.15556  0.50000  1.0000
  C   C384      1.0  0.19259  0.16296  0.50000  1.0000
  X   X142      1.0  0.17778  0.17778  0.50000  1.0000
  N   N212      1.0  0.19259  0.18519  0.50000  1.0000
  C   C385      1.0  0.17778  0.20000  0.50000  1.0000
  N   N213      1.0  0.19259  0.20741  0.50000  1.0000
  C   C386      1.0  0.17778  0.22222  0.50000  1.0000
  N   N214      1.0  0.19259  0.22963  0.50000  1.0000
  N   N215      1.0  0.17778  0.24444  0.50000  1.0000
  C   C387      1.0  0.19259  0.25185  0.50000  1.0000
  N   N216      1.0  0.17778  0.26667  0.50000  1.0000
  C   C388      1.0  0.19259  0.27407  0.50000  1.0000
  N   N217      1.0  0.17778  0.28889  0.50000  1.0000
  X   X143      1.0  0.19259  0.29630  0.50000  1.0000
  N   N218      1.0  0.17778  0.31111  0.50000  1.0000
  N   N219      1.0  0.19259  0.31852  0.50000  1.0000
  N   N220      1.0  0.17778  0.33333  0.50000  1.0000
  X   X144      1.0  0.19259  0.34074  0.50000  1.0000
  X   X145      1.0  0.17778  0.35556  0.50000  1.0000
  N   N221      1.0  0.19259  0.36296  0.50000  1.0000
  N   N222      1.0  0.17778  0.37778  0.50000  1.0000
  C   C389      1.0  0.19259  0.38519  0.50000  1.0000
  C   C390      1.0  0.17778  0.40000  0.50000  1.0000
  C   C391      1.0  0.19259  0.40741  0.50000  1.0000
  N   N223      1.0  0.17778  0.42222  0.50000  1.0000
  X   X146      1.0  0.19259  0.42963  0.50000  1.0000
  N   N224      1.0  0.17778  0.44444  0.50000  1.0000
  N   N225      1.0  0.19259  0.45185  0.50000  1.0000
  N   N226      1.0  0.17778  0.46667  0.50000  1.0000
  N   N227      1.0  0.19259  0.47407  0.50000  1.0000
  N   N228      1.0  0.17778  0.48889  0.50000  1.0000
  X   X147      1.0  0.19259  0.49630  0.50000  1.0000
  C   C392      1.0  0.17778  0.51111  0.50000  1.0000
  C   C393      1.0  0.19259  0.51852  0.50000  1.0000
  N   N229      1.0  0.17778  0.53333  0.50000  1.0000
  X   X148      1.0  0.19259  0.54074  0.50000  1.0000
  C   C394      1.0  0.17778  0.55556  0.50000  1.0000
  N   N230      1.0  0.19259  0.56296  0.50000  1.0000
  C   C395      1.0  0.17778  0.57778  0.50000  1.0000
  C   C396      1.0  0.19259  0.58519  0.50000  1.0000
  C   C397      1.0  0.17778  0.60000  0.50000  1.0000
  C   C398      1.0  0.19259  0.60741  0.50000  1.0000
  C   C399      1.0  0.17778  0.62222  0.50000  1.0000
  C   C400      1.0  0.19259  0.62963  0.50000  1.0000
  N   N231      1.0  0.17778  0.64444  0.50000  1.0000
  X   X149      1.0  0.19259  0.65185  0.50000  1.0000
  C   C401      1.0  0.17778  0.66667  0.50000  1.0000
  N   N232      1.0  0.19259  0.67407  0.50000  1.0000
  C   C402      1.0  0.17778  0.68889  0.50000  1.0000
  C   C403      1.0  0.19259  0.69630  0.50000  1.0000
  C   C404      1.0  0.17778  0.71111  0.50000  1.0000
  C   C405      1.0  0.19259  0.71852  0.50000  1.0000
  X   X150      1.0  0.17778  0.73333  0.50000  1.0000
  X   X151      1.0  0.19259  0.74074  0.50000  1.0000
  X   X152      1.0  0.17778  0.75556  0.50000  1.0000
  N   N233      1.0  0.19259  0.76296  0.50000  1.0000
  N   N234      1.0  0.17778  0.77778  0.50000  1.0000
  C   C406      1.0  0.19259  0.78519  0.50000  1.0000
  N   N235      1.0  0.17778  0.80000  0.50000  1.0000
  C   C407      1.0  0.19259  0.80741  0.50000  1.0000
  X   X153      1.0  0.17778  0.82222  0.50000  1.0000
  N   N236      1.0  0.19259  0.82963  0.50000  1.0000
  N   N237      1.0  0.17778  0.84444  0.50000  1.0000
  C   C408      1.0  0.19259  0.85185  0.50000  1.0000
  C   C409      1.0  0.17778  0.86667  0.50000  1.0000
  C   C410      1.0  0.19259  0.87407  0.50000  1.0000
  C   C411      1.0  0.17778  0.88889  0.50000  1.0000
  C   C412      1.0  0.19259  0.89630  0.50000  1.0000
  C   C413      1.0  0.17778  0.91111  0.50000  1.0000
  C   C414      1.0  0.19259  0.91852  0.50000  1.0000
  N   N238      1.0  0.17778  0.93333  0.50000  1.0000
  C   C415      1.0  0.19259  0.94074  0.50000  1.0000
  N   N239      1.0  0.17778  0.95556  0.50000  1.0000
  C   C416      1.0  0.19259  0.96296  0.50000  1.0000
  C   C417      1.0  0.17778  0.97778  0.50000  1.0000
  C   C418      1.0  0.19259  0.98519  0.50000  1.0000
  C   C419      1.0  0.20000  0.00000  0.50000  1.0000
  N   N240      1.0  0.21481  0.00741  0.50000  1.0000
  N   N241      1.0  0.20000  0.02222  0.50000  1.0000
  X   X154      1.0  0.21481  0.02963  0.50000  1.0000
  X   X155      1.0  0.20000  0.04444  0.50000  1.0000
  N   N242      1.0  0.21481  0.05185  0.50000  1.0000
  X   X156      1.0  0.20000  0.06667  0.50000  1.0000
  N   N243      1.0  0.21481  0.07407  0.50000  1.0000
  N   N244      1.0  0.20000  0.08889  0.50000  1.0000
  X   X157      1.0  0.21481  0.09630  0.50000  1.0000
  X   X158      1.0  0.20000  0.11111  0.50000  1.0000
  N   N245      1.0  0.21481  0.11852  0.50000  1.0000
  N   N246      1.0  0.20000  0.13333  0.50000  1.0000
  C   C420      1.0  0.21481  0.14074  0.50000  1.0000
  N   N247      1.0  0.20000  0.15556  0.50000  1.0000
  C   C421      1.0  0.21481  0.16296  0.50000  1.0000
  C   C422      1.0  0.20000  0.17778  0.50000  1.0000
  C   C423      1.0  0.21481  0.18519  0.50000  1.0000
  C   C424      1.0  0.20000  0.20000  0.50000  1.0000
  C   C425      1.0  0.21481  0.20741  0.50000  1.0000
  X   X159      1.0  0.20000  0.22222  0.50000  1.0000
  X   X160      1.0  0.21481  0.22963  0.50000  1.0000
  C   C426      1.0  0.20000  0.24444  0.50000  1.0000
  C   C427      1.0  0.21481  0.25185  0.50000  1.0000
  C   C428      1.0  0.20000  0.26667  0.50000  1.0000
  C   C429      1.0  0.21481  0.27407  0.50000  1.0000
  N   N248      1.0  0.20000  0.28889  0.50000  1.0000
  C   C430      1.0  0.21481  0.29630  0.50000  1.0000
  X   X161      1.0  0.20000  0.31111  0.50000  1.0000
  N   N249      1.0  0.21481  0.31852  0.50000  1.0000
  X   X162      1.0  0.20000  0.33333  0.50000  1.0000
  N   N250      1.0  0.21481  0.34074  0.50000  1.0000
  N   N251      1.0  0.20000  0.35556  0.50000  1.0000
  C   C431      1.0  0.21481  0.36296  0.50000  1.0000
  C   C432      1.0  0.20000  0.37778  0.50000  1.0000
  C   C433      1.0  0.21481  0.38519  0.50000  1.0000
  C   C434      1.0  0.20000  0.40000  0.50000  1.0000
  C   C435      1.0  0.21481  0.40741  0.50000  1.0000
  N   N252      1.0  0.20000  0.42222  0.50000  1.0000
  C   C436      1.0  0.21481  0.42963  0.50000  1.0000
  X   X163      1.0  0.20000  0.44444  0.50000  1.0000
  N   N253      1.0  0.21481  0.45185  0.50000  1.0000
  C   C437      1.0  0.20000  0.46667  0.50000  1.0000
  C   C438      1.0  0.21481  0.47407  0.50000  1.0000
  X   X164      1.0  0.20000  0.48889  0.50000  1.0000
  N   N254      1.0  0.21481  0.49630  0.50000  1.0000
  N   N255      1.0  0.20000  0.51111  0.50000  1.0000
  C   C439      1.0  0.21481  0.51852  0.50000  1.0000
  N   N256      1.0  0.20000  0.53333  0.50000  1.0000
  N   N257      1.0  0.21481  0.54074  0.50000  1.0000
  X   X165      1.0  0.20000  0.55556  0.50000  1.0000
  N   N258      1.0  0.21481  0.56296  0.50000  1.0000
  N   N259      1.0  0.20000  0.57778  0.50000  1.0000
  X   X166      1.0  0.21481  0.58519  0.50000  1.0000
  N   N260      1.0  0.20000  0.60000  0.50000  1.0000
  X   X167      1.0  0.21481  0.60741  0.50000  1.0000
  C   C440      1.0  0.20000  0.62222  0.50000  1.0000
  N   N261      1.0  0.21481  0.62963  0.50000  1.0000
  N   N262      1.0  0.20000  0.64444  0.50000  1.0000
  C   C441      1.0  0.21481  0.65185  0.50000  1.0000
  X   X168      1.0  0.20000  0.66667  0.50000  1.0000
  N   N263      1.0  0.21481  0.67407  0.50000  1.0000
  C   C442      1.0  0.20000  0.68889  0.50000  1.0000
  C   C443      1.0  0.21481  0.69630  0.50000  1.0000
  C   C444      1.0  0.20000  0.71111  0.50000  1.0000
  C   C445      1.0  0.21481  0.71852  0.50000  1.0000
  N   N264      1.0  0.20000  0.73333  0.50000  1.0000
  N   N265      1.0  0.21481  0.74074  0.50000  1.0000
  N   N266      1.0  0.20000  0.75556  0.50000  1.0000
  N   N267      1.0  0.21481  0.76296  0.50000  1.0000
  C   C446      1.0  0.20000  0.77778  0.50000  1.0000
  N   N268      1.0  0.21481  0.78519  0.50000  1.0000
  C   C447      1.0  0.20000  0.80000  0.50000  1.0000
  C   C448      1.0  0.21481  0.80741  0.50000  1.0000
  C   C449      1.0  0.20000  0.82222  0.50000  1.0000
  C   C450      1.0  0.21481  0.82963  0.50000  1.0000
  C   C451      1.0  0.20000  0.84444  0.50000  1.0000
  C   C452      1.0  0.21481  0.85185  0.50000  1.0000
  C   C453      1.0  0.20000  0.86667  0.50000  1.0000
  N   N269      1.0  0.21481  0.87407  0.50000  1.0000
  C   C454      1.0  0.20000  0.88889  0.50000  1.0000
  N   N270      1.0  0.21481  0.89630  0.50000  1.0000
  C   C455      1.0  0.20000  0.91111  0.50000  1.0000
  C   C456      1.0  0.21481  0.91852  0.50000  1.0000
  C   C457      1.0  0.20000  0.93333  0.50000  1.0000
  C   C458      1.0  0.21481  0.94074  0.50000  1.0000
  N   N271      1.0  0.20000  0.95556  0.50000  1.0000
  X   X169      1.0  0.21481  0.96296  0.50000  1.0000
  C   C459      1.0  0.20000  0.97778  0.50000  1.0000
  N   N272      1.0  0.21481  0.98519  0.50000  1.0000
  C   C460      1.0  0.22222  0.00000  0.50000  1.0000
  C   C461      1.0  0.23704  0.00741  0.50000  1.0000
  X   X170      1.0  0.22222  0.02222  0.50000  1.0000
  N   N273      1.0  0.23704  0.02963  0.50000  1.0000
  N   N274      1.0  0.22222  0.04444  0.50000  1.0000
  X   X171      1.0  0.23704  0.05185  0.50000  1.0000
  C   C462      1.0  0.22222  0.06667  0.50000  1.0000
  N   N275      1.0  0.23704  0.07407  0.50000  1.0000
  X   X172      1.0  0.22222  0.08889  0.50000  1.0000
  N   N276      1.0  0.23704  0.09630  0.50000  1.0000
  N   N277      1.0  0.22222  0.11111  0.50000  1.0000
  C   C463      1.0  0.23704  0.11852  0.50000  1.0000
  C   C464      1.0  0.22222  0.13333  0.50000  1.0000
  C   C465      1.0  0.23704  0.14074  0.50000  1.0000
  C   C466      1.0  0.22222  0.15556  0.50000  1.0000
  C   C467      1.0  0.23704  0.16296  0.50000  1.0000
  C   C468      1.0  0.22222  0.17778  0.50000  1.0000
  C   C469      1.0  0.23704  0.18519  0.50000  1.0000
  C   C470      1.0  0.22222  0.20000  0.50000  1.0000
  N   N278      1.0  0.23704  0.20741  0.50000  1.0000
  N   N279      1.0  0.22222  0.22222  0.50000  1.0000
  X   X173      1.0  0.23704  0.22963  0.50000  1.0000
  N   N280      1.0  0.22222  0.24444  0.50000  1.0000
  N   N281      1.0  0.23704  0.25185  0.50000  1.0000
  C   C471      1.0  0.22222  0.26667  0.50000  1.0000
  N   N282      1.0  0.23704  0.27407  0.50000  1.0000
  C   C472      1.0  0.22222  0.28889  0.50000  1.0000
  C   C473      1.0  0.23704  0.29630  0.50000  1.0000
  C   C474      1.0  0.22222  0.31111  0.50000  1.0000
  N   N283      1.0  0.23704  0.31852  0.50000  1.0000
  C   C475      1.0  0.22222  0.33333  0.50000  1.0000
  N   N284      1.0  0.23704  0.34074  0.50000  1.0000
  C   C476      1.0  0.22222  0.35556  0.50000  1.0000
  C   C477      1.0  0.23704  0.36296  0.50000  1.0000
  C   C478      1.0  0.22222  0.37778  0.50000  1.0000
  C   C479      1.0  0.23704  0.38519  0.50000  1.0000
  N   N285      1.0  0.22222  0.40000  0.50000  1.0000
  X   X174      1.0  0.23704  0.40741  0.50000  1.0000
  C   C480      1.0  0.22222  0.42222  0.50000  1.0000
  N   N286      1.0  0.23704  0.42963  0.50000  1.0000
  C   C481      1.0  0.22222  0.44444  0.50000  1.0000
  C   C482      1.0  0.23704  0.45185  0.50000  1.0000
  C   C483      1.0  0.22222  0.46667  0.50000  1.0000
  C   C484      1.0  0.23704  0.47407  0.50000  1.0000
  C   C485      1.0  0.22222  0.48889  0.50000  1.0000
  N   N287      1.0  0.23704  0.49630  0.50000  1.0000
  N   N288      1.0  0.22222  0.51111  0.50000  1.0000
  X   X175      1.0  0.23704  0.51852  0.50000  1.0000
  C   C486      1.0  0.22222  0.53333  0.50000  1.0000
  C   C487      1.0  0.23704  0.54074  0.50000  1.0000
  X   X176      1.0  0.22222  0.55556  0.50000  1.0000
  X   X177      1.0  0.23704  0.56296  0.50000  1.0000
  X   X178      1.0  0.22222  0.57778  0.50000  1.0000
  N   N289      1.0  0.23704  0.58519  0.50000  1.0000
  N   N290      1.0  0.22222  0.60000  0.50000  1.0000
  C   C488      1.0  0.23704  0.60741  0.50000  1.0000
  X   X179      1.0  0.22222  0.62222  0.50000  1.0000
  N   N291      1.0  0.23704  0.62963  0.50000  1.0000
  C   C489      1.0  0.22222  0.64444  0.50000  1.0000
  N   N292      1.0  0.23704  0.65185  0.50000  1.0000
  C   C490      1.0  0.22222  0.66667  0.50000  1.0000
  N   N293      1.0  0.23704  0.67407  0.50000  1.0000
  C   C491      1.0  0.22222  0.68889  0.50000  1.0000
  N   N294      1.0  0.23704  0.69630  0.50000  1.0000
  C   C492      1.0  0.22222  0.71111  0.50000  1.0000
  C   C493      1.0  0.23704  0.71852  0.50000  1.0000
  C   C494      1.0  0.22222  0.73333  0.50000  1.0000
  C   C495      1.0  0.23704  0.74074  0.50000  1.0000
  X   X180      1.0  0.22222  0.75556  0.50000  1.0000
  X   X181      1.0  0.23704  0.76296  0.50000  1.0000
  X   X182      1.0  0.22222  0.77778  0.50000  1.0000
  X   X183      1.0  0.23704  0.78519  0.50000  1.0000
  C   C496      1.0  0.22222  0.80000  0.50000  1.0000
  C   C497      1.0  0.23704  0.80741  0.50000  1.0000
  C   C498      1.0  0.22222  0.82222  0.50000  1.0000
  C   C499      1.0  0.23704  0.82963  0.50000  1.0000
  N   N295      1.0  0.22222  0.84444  0.50000  1.0000
  X   X184      1.0  0.23704  0.85185  0.50000  1.0000
  C   C500      1.0  0.22222  0.86667  0.50000  1.0000
  N   N296      1.0  0.23704  0.87407  0.50000  1.0000
  X   X185      1.0  0.22222  0.88889  0.50000  1.0000
  X   X186      1.0  0.23704  0.89630  0.50000  1.0000
  C   C501      1.0  0.22222  0.91111  0.50000  1.0000
  N   N297      1.0  0.23704  0.91852  0.50000  1.0000
  N   N298      1.0  0.22222  0.93333  0.50000  1.0000
  X   X187      1.0  0.23704  0.94074  0.50000  1.0000
  N   N299      1.0  0.22222  0.95556  0.50000  1.0000
  C   C502      1.0  0.23704  0.96296  0.50000  1.0000
  X   X188      1.0  0.22222  0.97778  0.50000  1.0000
  N   N300      1.0  0.23704  0.98519  0.50000  1.0000
  N   N301      1.0  0.24444  0.00000  0.50000  1.0000
  X   X189      1.0  0.25926  0.00741  0.50000  1.0000
  C   C503      1.0  0.24444  0.02222  0.50000  1.0000
  N   N302      1.0  0.25926  0.02963  0.50000  1.0000
  N   N303      1.0  0.24444  0.04444  0.50000  1.0000
  X   X190      1.0  0.25926  0.05185  0.50000  1.0000
  X   X191      1.0  0.24444  0.06667  0.50000  1.0000
  N   N304      1.0  0.25926  0.07407  0.50000  1.0000
  C   C504      1.0  0.24444  0.08889  0.50000  1.0000
  C   C505      1.0  0.25926  0.09630  0.50000  1.0000
  C   C506      1.0  0.24444  0.11111  0.50000  1.0000
  C   C507      1.0  0.25926  0.11852  0.50000  1.0000
  C   C508      1.0  0.24444  0.13333  0.50000  1.0000
  C   C509      1.0  0.25926  0.14074  0.50000  1.0000
  N   N305      1.0  0.24444  0.15556  0.50000  1.0000
  X   X192      1.0  0.25926  0.16296  0.50000  1.0000
  C   C510      1.0  0.24444  0.17778  0.50000  1.0000
  N   N306      1.0  0.25926  0.18519  0.50000  1.0000
  C   C511      1.0  0.24444  0.20000  0.50000  1.0000
  C   C512      1.0  0.25926  0.20741  0.50000  1.0000
  X   X193      1.0  0.24444  0.22222  0.50000  1.0000
  N   N307      1.0  0.25926  0.22963  0.50000  1.0000
  N   N308      1.0  0.24444  0.24444  0.50000  1.0000
  X   X194      1.0  0.25926  0.25185  0.50000  1.0000
  X   X195      1.0  0.24444  0.26667  0.50000  1.0000
  X   X196      1.0  0.25926  0.27407  0.50000  1.0000
  C   C513      1.0  0.24444  0.28889  0.50000  1.0000
  C   C514      1.0  0.25926  0.29630  0.50000  1.0000
  C   C515      1.0  0.24444  0.31111  0.50000  1.0000
  C   C516      1.0  0.25926  0.31852  0.50000  1.0000
  X   X197      1.0  0.24444  0.33333  0.50000  1.0000
  X   X198      1.0  0.25926  0.34074  0.50000  1.0000
  N   N309      1.0  0.24444  0.35556  0.50000  1.0000
  X   X199      1.0  0.25926  0.36296  0.50000  1.0000
  C   C517      1.0  0.24444  0.37778  0.50000  1.0000
  N   N310      1.0  0.25926  0.38519  0.50000  1.0000
  N   N311      1.0  0.24444  0.40000  0.50000  1.0000
  X   X200      1.0  0.25926  0.40741  0.50000  1.0000
  X   X201      1.0  0.24444  0.42222  0.50000  1.0000
  N   N312      1.0  0.25926  0.42963  0.50000  1.0000
  C   C518      1.0  0.24444  0.44444  0.50000  1.0000
  C   C519      1.0  0.25926  0.45185  0.50000  1.0000
  C   C520      1.0  0.24444  0.46667  0.50000  1.0000
  C   C521      1.0  0.25926  0.47407  0.50000  1.0000
  C   C522      1.0  0.24444  0.48889  0.50000  1.0000
  C   C523      1.0  0.25926  0.49630  0.50000  1.0000
  X   X202      1.0  0.24444  0.51111  0.50000  1.0000
  N   N313      1.0  0.25926  0.51852  0.50000  1.0000
  N   N314      1.0  0.24444  0.53333  0.50000  1.0000
  N   N315      1.0  0.25926  0.54074  0.50000  1.0000
  N   N316      1.0  0.24444  0.55556  0.50000  1.0000
  C   C524      1.0  0.25926  0.56296  0.50000  1.0000
  N   N317      1.0  0.24444  0.57778  0.50000  1.0000
  C   C525      1.0  0.25926  0.58519  0.50000  1.0000
  C   C526      1.0  0.24444  0.60000  0.50000  1.0000
  C   C527      1.0  0.25926  0.60741  0.50000  1.0000
  C   C528      1.0  0.24444  0.62222  0.50000  1.0000
  C   C529      1.0  0.25926  0.62963  0.50000  1.0000
  C   C530      1.0  0.24444  0.64444  0.50000  1.0000
  C   C531      1.0  0.25926  0.65185  0.50000  1.0000
  X   X203      1.0  0.24444  0.66667  0.50000  1.0000
  X   X204      1.0  0.25926  0.67407  0.50000  1.0000
  X   X205      1.0  0.24444  0.68889  0.50000  1.0000
  X   X206      1.0  0.25926  0.69630  0.50000  1.0000
  C   C532      1.0  0.24444  0.71111  0.50000  1.0000
  C   C533      1.0  0.25926  0.71852  0.50000  1.0000
  C   C534      1.0  0.24444  0.73333  0.50000  1.0000
  C   C535      1.0  0.25926  0.74074  0.50000  1.0000
  N   N318      1.0  0.24444  0.75556  0.50000  1.0000
  X   X207      1.0  0.25926  0.76296  0.50000  1.0000
  N   N319      1.0  0.24444  0.77778  0.50000  1.0000
  N   N320      1.0  0.25926  0.78519  0.50000  1.0000
  N   N321      1.0  0.24444  0.80000  0.50000  1.0000
  X   X208      1.0  0.25926  0.80741  0.50000  1.0000
  C   C536      1.0  0.24444  0.82222  0.50000  1.0000
  N   N322      1.0  0.25926  0.82963  0.50000  1.0000
  N   N323      1.0  0.24444  0.84444  0.50000  1.0000
  X   X209      1.0  0.25926  0.85185  0.50000  1.0000
  X   X210      1.0  0.24444  0.86667  0.50000  1.0000
  N   N324      1.0  0.25926  0.87407  0.50000  1.0000
  N   N325      1.0  0.24444  0.88889  0.50000  1.0000
  C   C537      1.0  0.25926  0.89630  0.50000  1.0000
  N   N326      1.0  0.24444  0.91111  0.50000  1.0000
  C   C538      1.0  0.25926  0.91852  0.50000  1.0000
  X   X211      1.0  0.24444  0.93333  0.50000  1.0000
  N   N327      1.0  0.25926  0.94074  0.50000  1.0000
  N   N328      1.0  0.24444  0.95556  0.50000  1.0000
  N   N329      1.0  0.25926  0.96296  0.50000  1.0000
  C   C539      1.0  0.24444  0.97778  0.50000  1.0000
  C   C540      1.0  0.25926  0.98519  0.50000  1.0000
  N   N330      1.0  0.26667  0.00000  0.50000  1.0000
  X   X212      1.0  0.28148  0.00741  0.50000  1.0000
  X   X213      1.0  0.26667  0.02222  0.50000  1.0000
  N   N331      1.0  0.28148  0.02963  0.50000  1.0000
  X   X214      1.0  0.26667  0.04444  0.50000  1.0000
  N   N332      1.0  0.28148  0.05185  0.50000  1.0000
  N   N333      1.0  0.26667  0.06667  0.50000  1.0000
  C   C541      1.0  0.28148  0.07407  0.50000  1.0000
  C   C542      1.0  0.26667  0.08889  0.50000  1.0000
  C   C543      1.0  0.28148  0.09630  0.50000  1.0000
  C   C544      1.0  0.26667  0.11111  0.50000  1.0000
  C   C545      1.0  0.28148  0.11852  0.50000  1.0000
  C   C546      1.0  0.26667  0.13333  0.50000  1.0000
  C   C547      1.0  0.28148  0.14074  0.50000  1.0000
  N   N334      1.0  0.26667  0.15556  0.50000  1.0000
  C   C548      1.0  0.28148  0.16296  0.50000  1.0000
  X   X215      1.0  0.26667  0.17778  0.50000  1.0000
  N   N335      1.0  0.28148  0.18519  0.50000  1.0000
  C   C549      1.0  0.26667  0.20000  0.50000  1.0000
  C   C550      1.0  0.28148  0.20741  0.50000  1.0000
  C   C551      1.0  0.26667  0.22222  0.50000  1.0000
  C   C552      1.0  0.28148  0.22963  0.50000  1.0000
  X   X216      1.0  0.26667  0.24444  0.50000  1.0000
  N   N336      1.0  0.28148  0.25185  0.50000  1.0000
  N   N337      1.0  0.26667  0.26667  0.50000  1.0000
  C   C553      1.0  0.28148  0.27407  0.50000  1.0000
  N   N338      1.0  0.26667  0.28889  0.50000  1.0000
  C   C554      1.0  0.28148  0.29630  0.50000  1.0000
  N   N339      1.0  0.26667  0.31111  0.50000  1.0000
  X   X217      1.0  0.28148  0.31852  0.50000  1.0000
  N   N340      1.0  0.26667  0.33333  0.50000  1.0000
  N   N341      1.0  0.28148  0.34074  0.50000  1.0000
  N   N342      1.0  0.26667  0.35556  0.50000  1.0000
  C   C555      1.0  0.28148  0.36296  0.50000  1.0000
  X   X218      1.0  0.26667  0.37778  0.50000  1.0000
  N   N343      1.0  0.28148  0.38519  0.50000  1.0000
  X   X219      1.0  0.26667  0.40000  0.50000  1.0000
  N   N344      1.0  0.28148  0.40741  0.50000  1.0000
  N   N345      1.0  0.26667  0.42222  0.50000  1.0000
  C   C556      1.0  0.28148  0.42963  0.50000  1.0000
  C   C557      1.0  0.26667  0.44444  0.50000  1.0000
  C   C558      1.0  0.28148  0.45185  0.50000  1.0000
  C   C559      1.0  0.26667  0.46667  0.50000  1.0000
  C   C560      1.0  0.28148  0.47407  0.50000  1.0000
  C   C561      1.0  0.26667  0.48889  0.50000  1.0000
  C   C562      1.0  0.28148  0.49630  0.50000  1.0000
  C   C563      1.0  0.26667  0.51111  0.50000  1.0000
  C   C564      1.0  0.28148  0.51852  0.50000  1.0000
  X   X220      1.0  0.26667  0.53333  0.50000  1.0000
  X   X221      1.0  0.28148  0.54074  0.50000  1.0000
  C   C565      1.0  0.26667  0.55556  0.50000  1.0000
  C   C566      1.0  0.28148  0.56296  0.50000  1.0000
  C   C567      1.0  0.26667  0.57778  0.50000  1.0000
  N   N346      1.0  0.28148  0.58519  0.50000  1.0000
  N   N347      1.0  0.26667  0.60000  0.50000  1.0000
  X   X222      1.0  0.28148  0.60741  0.50000  1.0000
  C   C568      1.0  0.26667  0.62222  0.50000  1.0000
  C   C569      1.0  0.28148  0.62963  0.50000  1.0000
  C   C570      1.0  0.26667  0.64444  0.50000  1.0000
  N   N348      1.0  0.28148  0.65185  0.50000  1.0000
  N   N349      1.0  0.26667  0.66667  0.50000  1.0000
  N   N350      1.0  0.28148  0.67407  0.50000  1.0000
  N   N351      1.0  0.26667  0.68889  0.50000  1.0000
  C   C571      1.0  0.28148  0.69630  0.50000  1.0000
  N   N352      1.0  0.26667  0.71111  0.50000  1.0000
  N   N353      1.0  0.28148  0.71852  0.50000  1.0000
  C   C572      1.0  0.26667  0.73333  0.50000  1.0000
  N   N354      1.0  0.28148  0.74074  0.50000  1.0000
  N   N355      1.0  0.26667  0.75556  0.50000  1.0000
  N   N356      1.0  0.28148  0.76296  0.50000  1.0000
  X   X223      1.0  0.26667  0.77778  0.50000  1.0000
  N   N357      1.0  0.28148  0.78519  0.50000  1.0000
  X   X224      1.0  0.26667  0.80000  0.50000  1.0000
  N   N358      1.0  0.28148  0.80741  0.50000  1.0000
  N   N359      1.0  0.26667  0.82222  0.50000  1.0000
  C   C573      1.0  0.28148  0.82963  0.50000  1.0000
  X   X225      1.0  0.26667  0.84444  0.50000  1.0000
  N   N360      1.0  0.28148  0.85185  0.50000  1.0000
  N   N361      1.0  0.26667  0.86667  0.50000  1.0000
  N   N362      1.0  0.28148  0.87407  0.50000  1.0000
  N   N363      1.0  0.26667  0.88889  0.50000  1.0000
  X   X226      1.0  0.28148  0.89630  0.50000  1.0000
  C   C574      1.0  0.26667  0.91111  0.50000  1.0000
  C   C575      1.0  0.28148  0.91852  0.50000  1.0000
  C   C576      1.0  0.26667  0.93333  0.50000  1.0000
  C   C577      1.0  0.28148  0.94074  0.50000  1.0000
  X   X227      1.0  0.26667  0.95556  0.50000  1.0000
  X   X228      1.0  0.28148  0.96296  0.50000  1.0000
  C   C578      1.0  0.26667  0.97778  0.50000  1.0000
  C   C579      1.0  0.28148  0.98519  0.50000  1.0000
  N   N364      1.0  0.28889  0.00000  0.50000  1.0000
  C   C580      1.0  0.30370  0.00741  0.50000  1.0000
  X   X229      1.0  0.28889  0.02222  0.50000  1.0000
  N   N365      1.0  0.30370  0.02963  0.50000  1.0000
  C   C581      1.0  0.28889  0.04444  0.50000  1.0000
  N   N366      1.0  0.30370  0.05185  0.50000  1.0000
  N   N367      1.0  0.28889  0.06667  0.50000  1.0000
  X   X230      1.0  0.30370  0.07407  0.50000  1.0000
  C   C582      1.0  0.28889  0.08889  0.50000  1.0000
  C   C583      1.0  0.30370  0.09630  0.50000  1.0000
  C   C584      1.0  0.28889  0.11111  0.50000  1.0000
  C   C585      1.0  0.30370  0.11852  0.50000  1.0000
  C   C586      1.0  0.28889  0.13333  0.50000  1.0000
  C   C587      1.0  0.30370  0.14074  0.50000  1.0000
  C   C588      1.0  0.28889  0.15556  0.50000  1.0000
  C   C589      1.0  0.30370  0.16296  0.50000  1.0000
  C   C590      1.0  0.28889  0.17778  0.50000  1.0000
  C   C591      1.0  0.30370  0.18519  0.50000  1.0000
  C   C592      1.0  0.28889  0.20000  0.50000  1.0000
  N   N368      1.0  0.30370  0.20741  0.50000  1.0000
  N   N369      1.0  0.28889  0.22222  0.50000  1.0000
  X   X231      1.0  0.30370  0.22963  0.50000  1.0000
  C   C593      1.0  0.28889  0.24444  0.50000  1.0000
  C   C594      1.0  0.30370  0.25185  0.50000  1.0000
  C   C595      1.0  0.28889  0.26667  0.50000  1.0000
  C   C596      1.0  0.30370  0.27407  0.50000  1.0000
  C   C597      1.0  0.28889  0.28889  0.50000  1.0000
  N   N370      1.0  0.30370  0.29630  0.50000  1.0000
  N   N371      1.0  0.28889  0.31111  0.50000  1.0000
  N   N372      1.0  0.30370  0.31852  0.50000  1.0000
  X   X232      1.0  0.28889  0.33333  0.50000  1.0000
  N   N373      1.0  0.30370  0.34074  0.50000  1.0000
  N   N374      1.0  0.28889  0.35556  0.50000  1.0000
  X   X233      1.0  0.30370  0.36296  0.50000  1.0000
  C   C598      1.0  0.28889  0.37778  0.50000  1.0000
  N   N375      1.0  0.30370  0.38519  0.50000  1.0000
  C   C599      1.0  0.28889  0.40000  0.50000  1.0000
  C   C600      1.0  0.30370  0.40741  0.50000  1.0000
  C   C601      1.0  0.28889  0.42222  0.50000  1.0000
  N   N376      1.0  0.30370  0.42963  0.50000  1.0000
  N   N377      1.0  0.28889  0.44444  0.50000  1.0000
  X   X234      1.0  0.30370  0.45185  0.50000  1.0000
  C   C602      1.0  0.28889  0.46667  0.50000  1.0000
  C   C603      1.0  0.30370  0.47407  0.50000  1.0000
  N   N378      1.0  0.28889  0.48889  0.50000  1.0000
  X   X235      1.0  0.30370  0.49630  0.50000  1.0000
  C   C604      1.0  0.28889  0.51111  0.50000  1.0000
  N   N379      1.0  0.30370  0.51852  0.50000  1.0000
  N   N380      1.0  0.28889  0.53333  0.50000  1.0000
  C   C605      1.0  0.30370  0.54074  0.50000  1.0000
  N   N381      1.0  0.28889  0.55556  0.50000  1.0000
  C   C606      1.0  0.30370  0.56296  0.50000  1.0000
  C   C607      1.0  0.28889  0.57778  0.50000  1.0000
  C   C608      1.0  0.30370  0.58519  0.50000  1.0000
  X   X236      1.0  0.28889  0.60000  0.50000  1.0000
  N   N382      1.0  0.30370  0.60741  0.50000  1.0000
  N   N383      1.0  0.28889  0.62222  0.50000  1.0000
  C   C609      1.0  0.30370  0.62963  0.50000  1.0000
  C   C610      1.0  0.28889  0.64444  0.50000  1.0000
  C   C611      1.0  0.30370  0.65185  0.50000  1.0000
  X   X237      1.0  0.28889  0.66667  0.50000  1.0000
  X   X238      1.0  0.30370  0.67407  0.50000  1.0000
  C   C612      1.0  0.28889  0.68889  0.50000  1.0000
  C   C613      1.0  0.30370  0.69630  0.50000  1.0000
  C   C614      1.0  0.28889  0.71111  0.50000  1.0000
  C   C615      1.0  0.30370  0.71852  0.50000  1.0000
  X   X239      1.0  0.28889  0.73333  0.50000  1.0000
  X   X240      1.0  0.30370  0.74074  0.50000  1.0000
  X   X241      1.0  0.28889  0.75556  0.50000  1.0000
  X   X242      1.0  0.30370  0.76296  0.50000  1.0000
  C   C616      1.0  0.28889  0.77778  0.50000  1.0000
  C   C617      1.0  0.30370  0.78519  0.50000  1.0000
  X   X243      1.0  0.28889  0.80000  0.50000  1.0000
  X   X244      1.0  0.30370  0.80741  0.50000  1.0000
  C   C618      1.0  0.28889  0.82222  0.50000  1.0000
  C   C619      1.0  0.30370  0.82963  0.50000  1.0000
  C   C620      1.0  0.28889  0.84444  0.50000  1.0000
  N   N384      1.0  0.30370  0.85185  0.50000  1.0000
  N   N385      1.0  0.28889  0.86667  0.50000  1.0000
  X   X245      1.0  0.30370  0.87407  0.50000  1.0000
  X   X246      1.0  0.28889  0.88889  0.50000  1.0000
  N   N386      1.0  0.30370  0.89630  0.50000  1.0000
  N   N387      1.0  0.28889  0.91111  0.50000  1.0000
  C   C621      1.0  0.30370  0.91852  0.50000  1.0000
  C   C622      1.0  0.28889  0.93333  0.50000  1.0000
  C   C623      1.0  0.30370  0.94074  0.50000  1.0000
  N   N388      1.0  0.28889  0.95556  0.50000  1.0000
  C   C624      1.0  0.30370  0.96296  0.50000  1.0000
  N   N389      1.0  0.28889  0.97778  0.50000  1.0000
  C   C625      1.0  0.30370  0.98519  0.50000  1.0000
  C   C626      1.0  0.31111  0.00000  0.50000  1.0000
  C   C627      1.0  0.32593  0.00741  0.50000  1.0000
  C   C628      1.0  0.31111  0.02222  0.50000  1.0000
  C   C629      1.0  0.32593  0.02963  0.50000  1.0000
  X   X247      1.0  0.31111  0.04444  0.50000  1.0000
  X   X248      1.0  0.32593  0.05185  0.50000  1.0000
  X   X249      1.0  0.31111  0.06667  0.50000  1.0000
  N   N390      1.0  0.32593  0.07407  0.50000  1.0000
  N   N391      1.0  0.31111  0.08889  0.50000  1.0000
  C   C630      1.0  0.32593  0.09630  0.50000  1.0000
  C   C631      1.0  0.31111  0.11111  0.50000  1.0000
  C   C632      1.0  0.32593  0.11852  0.50000  1.0000
  N   N392      1.0  0.31111  0.13333  0.50000  1.0000
  X   X250      1.0  0.32593  0.14074  0.50000  1.0000
  C   C633      1.0  0.31111  0.15556  0.50000  1.0000
  N   N393      1.0  0.32593  0.16296  0.50000  1.0000
  N   N394      1.0  0.31111  0.17778  0.50000  1.0000
  X   X251      1.0  0.32593  0.18519  0.50000  1.0000
  C   C634      1.0  0.31111  0.20000  0.50000  1.0000
  N   N395      1.0  0.32593  0.20741  0.50000  1.0000
  X   X252      1.0  0.31111  0.22222  0.50000  1.0000
  N   N396      1.0  0.32593  0.22963  0.50000  1.0000
  N   N397      1.0  0.31111  0.24444  0.50000  1.0000
  C   C635      1.0  0.32593  0.25185  0.50000  1.0000
  C   C636      1.0  0.31111  0.26667  0.50000  1.0000
  C   C637      1.0  0.32593  0.27407  0.50000  1.0000
  C   C638      1.0  0.31111  0.28889  0.50000  1.0000
  C   C639      1.0  0.32593  0.29630  0.50000  1.0000
  X   X253      1.0  0.31111  0.31111  0.50000  1.0000
  X   X254      1.0  0.32593  0.31852  0.50000  1.0000
  X   X255      1.0  0.31111  0.33333  0.50000  1.0000
  X   X256      1.0  0.32593  0.34074  0.50000  1.0000
  N   N398      1.0  0.31111  0.35556  0.50000  1.0000
  C   C640      1.0  0.32593  0.36296  0.50000  1.0000
  X   X257      1.0  0.31111  0.37778  0.50000  1.0000
  N   N399      1.0  0.32593  0.38519  0.50000  1.0000
  N   N400      1.0  0.31111  0.40000  0.50000  1.0000
  X   X258      1.0  0.32593  0.40741  0.50000  1.0000
  C   C641      1.0  0.31111  0.42222  0.50000  1.0000
  N   N401      1.0  0.32593  0.42963  0.50000  1.0000
  X   X259      1.0  0.31111  0.44444  0.50000  1.0000
  N   N402      1.0  0.32593  0.45185  0.50000  1.0000
  N   N403      1.0  0.31111  0.46667  0.50000  1.0000
  C   C642      1.0  0.32593  0.47407  0.50000  1.0000
  N   N404      1.0  0.31111  0.48889  0.50000  1.0000
  C   C643      1.0  0.32593  0.49630  0.50000  1.0000
  X   X260      1.0  0.31111  0.51111  0.50000  1.0000
  N   N405      1.0  0.32593  0.51852  0.50000  1.0000
  C   C644      1.0  0.31111  0.53333  0.50000  1.0000
  N   N406      1.0  0.32593  0.54074  0.50000  1.0000
  C   C645      1.0  0.31111  0.55556  0.50000  1.0000
  N   N407      1.0  0.32593  0.56296  0.50000  1.0000
  N   N408      1.0  0.31111  0.57778  0.50000  1.0000
  X   X261      1.0  0.32593  0.58519  0.50000  1.0000
  C   C646      1.0  0.31111  0.60000  0.50000  1.0000
  C   C647      1.0  0.32593  0.60741  0.50000  1.0000
  C   C648      1.0  0.31111  0.62222  0.50000  1.0000
  C   C649      1.0  0.32593  0.62963  0.50000  1.0000
  C   C650      1.0  0.31111  0.64444  0.50000  1.0000
  C   C651      1.0  0.32593  0.65185  0.50000  1.0000
  N   N409      1.0  0.31111  0.66667  0.50000  1.0000
  X   X262      1.0  0.32593  0.67407  0.50000  1.0000
  N   N410      1.0  0.31111  0.68889  0.50000  1.0000
  N   N411      1.0  0.32593  0.69630  0.50000  1.0000
  C   C652      1.0  0.31111  0.71111  0.50000  1.0000
  C   C653      1.0  0.32593  0.71852  0.50000  1.0000
  N   N412      1.0  0.31111  0.73333  0.50000  1.0000
  C   C654      1.0  0.32593  0.74074  0.50000  1.0000
  N   N413      1.0  0.31111  0.75556  0.50000  1.0000
  C   C655      1.0  0.32593  0.76296  0.50000  1.0000
  N   N414      1.0  0.31111  0.77778  0.50000  1.0000
  C   C656      1.0  0.32593  0.78519  0.50000  1.0000
  N   N415      1.0  0.31111  0.80000  0.50000  1.0000
  C   C657      1.0  0.32593  0.80741  0.50000  1.0000
  N   N416      1.0  0.31111  0.82222  0.50000  1.0000
  C   C658      1.0  0.32593  0.82963  0.50000  1.0000
  C   C659      1.0  0.31111  0.84444  0.50000  1.0000
  N   N417      1.0  0.32593  0.85185  0.50000  1.0000
  X   X263      1.0  0.31111  0.86667  0.50000  1.0000
  N   N418      1.0  0.32593  0.87407  0.50000  1.0000
  N   N419      1.0  0.31111  0.88889  0.50000  1.0000
  N   N420      1.0  0.32593  0.89630  0.50000  1.0000
  N   N421      1.0  0.31111  0.91111  0.50000  1.0000
  X   X264      1.0  0.32593  0.91852  0.50000  1.0000
  C   C660      1.0  0.31111  0.93333  0.50000  1.0000
  N   N422      1.0  0.32593  0.94074  0.50000  1.0000
  N   N423      1.0  0.31111  0.95556  0.50000  1.0000
  X   X265      1.0  0.32593  0.96296  0.50000  1.0000
  C   C661      1.0  0.31111  0.97778  0.50000  1.0000
  C   C662      1.0  0.32593  0.98519  0.50000  1.0000
  C   C663      1.0  0.33333  0.00000  0.50000  1.0000
  C   C664      1.0  0.34815  0.00741  0.50000  1.0000
  C   C665      1.0  0.33333  0.02222  0.50000  1.0000
  C   C666      1.0  0.34815  0.02963  0.50000  1.0000
  N   N424      1.0  0.33333  0.04444  0.50000  1.0000
  C   C667      1.0  0.34815  0.05185  0.50000  1.0000
  N   N425      1.0  0.33333  0.06667  0.50000  1.0000
  X   X266      1.0  0.34815  0.07407  0.50000  1.0000
  C   C668      1.0  0.33333  0.08889  0.50000  1.0000
  N   N426      1.0  0.34815  0.09630  0.50000  1.0000
  C   C669      1.0  0.33333  0.11111  0.50000  1.0000
  C   C670      1.0  0.34815  0.11852  0.50000  1.0000
  N   N427      1.0  0.33333  0.13333  0.50000  1.0000
  C   C671      1.0  0.34815  0.14074  0.50000  1.0000
  X   X267      1.0  0.33333  0.15556  0.50000  1.0000
  N   N428      1.0  0.34815  0.16296  0.50000  1.0000
  N   N429      1.0  0.33333  0.17778  0.50000  1.0000
  X   X268      1.0  0.34815  0.18519  0.50000  1.0000
  X   X269      1.0  0.33333  0.20000  0.50000  1.0000
  N   N430      1.0  0.34815  0.20741  0.50000  1.0000
  N   N431      1.0  0.33333  0.22222  0.50000  1.0000
  X   X270      1.0  0.34815  0.22963  0.50000  1.0000
  C   C672      1.0  0.33333  0.24444  0.50000  1.0000
  N   N432      1.0  0.34815  0.25185  0.50000  1.0000
  C   C673      1.0  0.33333  0.26667  0.50000  1.0000
  N   N433      1.0  0.34815  0.27407  0.50000  1.0000
  C   C674      1.0  0.33333  0.28889  0.50000  1.0000
  N   N434      1.0  0.34815  0.29630  0.50000  1.0000
  N   N435      1.0  0.33333  0.31111  0.50000  1.0000
  C   C675      1.0  0.34815  0.31852  0.50000  1.0000
  N   N436      1.0  0.33333  0.33333  0.50000  1.0000
  C   C676      1.0  0.34815  0.34074  0.50000  1.0000
  N   N437      1.0  0.33333  0.35556  0.50000  1.0000
  C   C677      1.0  0.34815  0.36296  0.50000  1.0000
  C   C678      1.0  0.33333  0.37778  0.50000  1.0000
  C   C679      1.0  0.34815  0.38519  0.50000  1.0000
  N   N438      1.0  0.33333  0.40000  0.50000  1.0000
  C   C680      1.0  0.34815  0.40741  0.50000  1.0000
  X   X271      1.0  0.33333  0.42222  0.50000  1.0000
  N   N439      1.0  0.34815  0.42963  0.50000  1.0000
  C   C681      1.0  0.33333  0.44444  0.50000  1.0000
  C   C682      1.0  0.34815  0.45185  0.50000  1.0000
  C   C683      1.0  0.33333  0.46667  0.50000  1.0000
  C   C684      1.0  0.34815  0.47407  0.50000  1.0000
  C   C685      1.0  0.33333  0.48889  0.50000  1.0000
  C   C686      1.0  0.34815  0.49630  0.50000  1.0000
  C   C687      1.0  0.33333  0.51111  0.50000  1.0000
  C   C688      1.0  0.34815  0.51852  0.50000  1.0000
  X   X272      1.0  0.33333  0.53333  0.50000  1.0000
  X   X273      1.0  0.34815  0.54074  0.50000  1.0000
  X   X274      1.0  0.33333  0.55556  0.50000  1.0000
  X   X275      1.0  0.34815  0.56296  0.50000  1.0000
  X   X276      1.0  0.33333  0.57778  0.50000  1.0000
  N   N440      1.0  0.34815  0.58519  0.50000  1.0000
  N   N441      1.0  0.33333  0.60000  0.50000  1.0000
  N   N442      1.0  0.34815  0.60741  0.50000  1.0000
  N   N443      1.0  0.33333  0.62222  0.50000  1.0000
  X   X277      1.0  0.34815  0.62963  0.50000  1.0000
  C   C689      1.0  0.33333  0.64444  0.50000  1.0000
  C   C690      1.0  0.34815  0.65185  0.50000  1.0000
  N   N444      1.0  0.33333  0.66667  0.50000  1.0000
  N   N445      1.0  0.34815  0.67407  0.50000  1.0000
  X   X278      1.0  0.33333  0.68889  0.50000  1.0000
  N   N446      1.0  0.34815  0.69630  0.50000  1.0000
  N   N447      1.0  0.33333  0.71111  0.50000  1.0000
  X   X279      1.0  0.34815  0.71852  0.50000  1.0000
  C   C691      1.0  0.33333  0.73333  0.50000  1.0000
  C   C692      1.0  0.34815  0.74074  0.50000  1.0000
  C   C693      1.0  0.33333  0.75556  0.50000  1.0000
  C   C694      1.0  0.34815  0.76296  0.50000  1.0000
  C   C695      1.0  0.33333  0.77778  0.50000  1.0000
  N   N448      1.0  0.34815  0.78519  0.50000  1.0000
  C   C696      1.0  0.33333  0.80000  0.50000  1.0000
  N   N449      1.0  0.34815  0.80741  0.50000  1.0000
  C   C697      1.0  0.33333  0.82222  0.50000  1.0000
  N   N450      1.0  0.34815  0.82963  0.50000  1.0000
  C   C698      1.0  0.33333  0.84444  0.50000  1.0000
  C   C699      1.0  0.34815  0.85185  0.50000  1.0000
  X   X280      1.0  0.33333  0.86667  0.50000  1.0000
  X   X281      1.0  0.34815  0.87407  0.50000  1.0000
  X   X282      1.0  0.33333  0.88889  0.50000  1.0000
  X   X283      1.0  0.34815  0.89630  0.50000  1.0000
  X   X284      1.0  0.33333  0.91111  0.50000  1.0000
  N   N451      1.0  0.34815  0.91852  0.50000  1.0000
  N   N452      1.0  0.33333  0.93333  0.50000  1.0000
  C   C700      1.0  0.34815  0.94074  0.50000  1.0000
  X   X285      1.0  0.33333  0.95556  0.50000  1.0000
  N   N453      1.0  0.34815  0.96296  0.50000  1.0000
  N   N454      1.0  0.33333  0.97778  0.50000  1.0000
  C   C701      1.0  0.34815  0.98519  0.50000  1.0000
  C   C702      1.0  0.35556  0.00000  0.50000  1.0000
  C   C703      1.0  0.37037  0.00741  0.50000  1.0000
  C   C704      1.0  0.35556  0.02222  0.50000  1.0000
  C   C705      1.0  0.37037  0.02963  0.50000  1.0000
  C   C706      1.0  0.35556  0.04444  0.50000  1.0000
  C   C707      1.0  0.37037  0.05185  0.50000  1.0000
  N   N455      1.0  0.35556  0.06667  0.50000  1.0000
  N   N456      1.0  0.37037  0.07407  0.50000  1.0000
  X   X286      1.0  0.35556  0.08889  0.50000  1.0000
  N   N457      1.0  0.37037  0.09630  0.50000  1.0000
  C   C708      1.0  0.35556  0.11111  0.50000  1.0000
  C   C709      1.0  0.37037  0.11852  0.50000  1.0000
  C   C710      1.0  0.35556  0.13333  0.50000  1.0000
  C   C711      1.0  0.37037  0.14074  0.50000  1.0000
  C   C712      1.0  0.35556  0.15556  0.50000  1.0000
  C   C713      1.0  0.37037  0.16296  0.50000  1.0000
  N   N458      1.0  0.35556  0.17778  0.50000  1.0000
  C   C714      1.0  0.37037  0.18519  0.50000  1.0000
  X   X287      1.0  0.35556  0.20000  0.50000  1.0000
  N   N459      1.0  0.37037  0.20741  0.50000  1.0000
  N   N460      1.0  0.35556  0.22222  0.50000  1.0000
  C   C715      1.0  0.37037  0.22963  0.50000  1.0000
  X   X288      1.0  0.35556  0.24444  0.50000  1.0000
  N   N461      1.0  0.37037  0.25185  0.50000  1.0000
  C   C716      1.0  0.35556  0.26667  0.50000  1.0000
  C   C717      1.0  0.37037  0.27407  0.50000  1.0000
  X   X289      1.0  0.35556  0.28889  0.50000  1.0000
  X   X290      1.0  0.37037  0.29630  0.50000  1.0000
  N   N462      1.0  0.35556  0.31111  0.50000  1.0000
  X   X291      1.0  0.37037  0.31852  0.50000  1.0000
  C   C718      1.0  0.35556  0.33333  0.50000  1.0000
  N   N463      1.0  0.37037  0.34074  0.50000  1.0000
  N   N464      1.0  0.35556  0.35556  0.50000  1.0000
  X   X292      1.0  0.37037  0.36296  0.50000  1.0000
  C   C719      1.0  0.35556  0.37778  0.50000  1.0000
  N   N465      1.0  0.37037  0.38519  0.50000  1.0000
  C   C720      1.0  0.35556  0.40000  0.50000  1.0000
  C   C721      1.0  0.37037  0.40741  0.50000  1.0000
  C   C722      1.0  0.35556  0.42222  0.50000  1.0000
  C   C723      1.0  0.37037  0.42963  0.50000  1.0000
  C   C724      1.0  0.35556  0.44444  0.50000  1.0000
  C   C725      1.0  0.37037  0.45185  0.50000  1.0000
  C   C726      1.0  0.35556  0.46667  0.50000  1.0000
  C   C727      1.0  0.37037  0.47407  0.50000  1.0000
  C   C728      1.0  0.35556  0.48889  0.50000  1.0000
  C   C729      1.0  0.37037  0.49630  0.50000  1.0000
  C   C730      1.0  0.35556  0.51111  0.50000  1.0000
  N   N466      1.0  0.37037  0.51852  0.50000  1.0000
  N   N467      1.0  0.35556  0.53333  0.50000  1.0000
  X   X293      1.0  0.37037  0.54074  0.50000  1.0000
  N   N468      1.0  0.35556  0.55556  0.50000  1.0000
  C   C731      1.0  0.37037  0.56296  0.50000  1.0000
  N   N469      1.0  0.35556  0.57778  0.50000  1.0000
  C   C732      1.0  0.37037  0.58519  0.50000  1.0000
  C   C733      1.0  0.35556  0.60000  0.50000  1.0000
  C   C734      1.0  0.37037  0.60741  0.50000  1.0000
  X   X294      1.0  0.35556  0.62222  0.50000  1.0000
  N   N470      1.0  0.37037  0.62963  0.50000  1.0000
  N   N471      1.0  0.35556  0.64444  0.50000  1.0000
  C   C735      1.0  0.37037  0.65185  0.50000  1.0000
  C   C736      1.0  0.35556  0.66667  0.50000  1.0000
  C   C737      1.0  0.37037  0.67407  0.50000  1.0000
  X   X295      1.0  0.35556  0.68889  0.50000  1.0000
  X   X296      1.0  0.37037  0.69630  0.50000  1.0000
  X   X297      1.0  0.35556  0.71111  0.50000  1.0000
  N   N472      1.0  0.37037  0.71852  0.50000  1.0000
  N   N473      1.0  0.35556  0.73333  0.50000  1.0000
  X   X298      1.0  0.37037  0.74074  0.50000  1.0000
  C   C738      1.0  0.35556  0.75556  0.50000  1.0000
  C   C739      1.0  0.37037  0.76296  0.50000  1.0000
  C   C740      1.0  0.35556  0.77778  0.50000  1.0000
  C   C741      1.0  0.37037  0.78519  0.50000  1.0000
  X   X299      1.0  0.35556  0.80000  0.50000  1.0000
  X   X300      1.0  0.37037  0.80741  0.50000  1.0000
  X   X301      1.0  0.35556  0.82222  0.50000  1.0000
  X   X302      1.0  0.37037  0.82963  0.50000  1.0000
  C   C742      1.0  0.35556  0.84444  0.50000  1.0000
  C   C743      1.0  0.37037  0.85185  0.50000  1.0000
  N   N474      1.0  0.35556  0.86667  0.50000  1.0000
  C   C744      1.0  0.37037  0.87407  0.50000  1.0000
  N   N475      1.0  0.35556  0.88889  0.50000  1.0000
  C   C745      1.0  0.37037  0.89630  0.50000  1.0000
  N   N476      1.0  0.35556  0.91111  0.50000  1.0000
  C   C746      1.0  0.37037  0.91852  0.50000  1.0000
  C   C747      1.0  0.35556  0.93333  0.50000  1.0000
  C   C748      1.0  0.37037  0.94074  0.50000  1.0000
  C   C749      1.0  0.35556  0.95556  0.50000  1.0000
  C   C750      1.0  0.37037  0.96296  0.50000  1.0000
  C   C751      1.0  0.35556  0.97778  0.50000  1.0000
  C   C752      1.0  0.37037  0.98519  0.50000  1.0000
  N   N477      1.0  0.37778  0.00000  0.50000  1.0000
  X   X303      1.0  0.39259  0.00741  0.50000  1.0000
  C   C753      1.0  0.37778  0.02222  0.50000  1.0000
  N   N478      1.0  0.39259  0.02963  0.50000  1.0000
  C   C754      1.0  0.37778  0.04444  0.50000  1.0000
  N   N479      1.0  0.39259  0.05185  0.50000  1.0000
  C   C755      1.0  0.37778  0.06667  0.50000  1.0000
  N   N480      1.0  0.39259  0.07407  0.50000  1.0000
  X   X304      1.0  0.37778  0.08889  0.50000  1.0000
  X   X305      1.0  0.39259  0.09630  0.50000  1.0000
  C   C756      1.0  0.37778  0.11111  0.50000  1.0000
  C   C757      1.0  0.39259  0.11852  0.50000  1.0000
  C   C758      1.0  0.37778  0.13333  0.50000  1.0000
  C   C759      1.0  0.39259  0.14074  0.50000  1.0000
  C   C760      1.0  0.37778  0.15556  0.50000  1.0000
  C   C761      1.0  0.39259  0.16296  0.50000  1.0000
  C   C762      1.0  0.37778  0.17778  0.50000  1.0000
  N   N481      1.0  0.39259  0.18519  0.50000  1.0000
  C   C763      1.0  0.37778  0.20000  0.50000  1.0000
  N   N482      1.0  0.39259  0.20741  0.50000  1.0000
  C   C764      1.0  0.37778  0.22222  0.50000  1.0000
  C   C765      1.0  0.39259  0.22963  0.50000  1.0000
  C   C766      1.0  0.37778  0.24444  0.50000  1.0000
  C   C767      1.0  0.39259  0.25185  0.50000  1.0000
  C   C768      1.0  0.37778  0.26667  0.50000  1.0000
  C   C769      1.0  0.39259  0.27407  0.50000  1.0000
  N   N483      1.0  0.37778  0.28889  0.50000  1.0000
  X   X306      1.0  0.39259  0.29630  0.50000  1.0000
  N   N484      1.0  0.37778  0.31111  0.50000  1.0000
  N   N485      1.0  0.39259  0.31852  0.50000  1.0000
  X   X307      1.0  0.37778  0.33333  0.50000  1.0000
  N   N486      1.0  0.39259  0.34074  0.50000  1.0000
  N   N487      1.0  0.37778  0.35556  0.50000  1.0000
  X   X308      1.0  0.39259  0.36296  0.50000  1.0000
  X   X309      1.0  0.37778  0.37778  0.50000  1.0000
  N   N488      1.0  0.39259  0.38519  0.50000  1.0000
  N   N489      1.0  0.37778  0.40000  0.50000  1.0000
  X   X310      1.0  0.39259  0.40741  0.50000  1.0000
  C   C770      1.0  0.37778  0.42222  0.50000  1.0000
  C   C771      1.0  0.39259  0.42963  0.50000  1.0000
  C   C772      1.0  0.37778  0.44444  0.50000  1.0000
  C   C773      1.0  0.39259  0.45185  0.50000  1.0000
  N   N490      1.0  0.37778  0.46667  0.50000  1.0000
  X   X311      1.0  0.39259  0.47407  0.50000  1.0000
  C   C774      1.0  0.37778  0.48889  0.50000  1.0000
  N   N491      1.0  0.39259  0.49630  0.50000  1.0000
  C   C775      1.0  0.37778  0.51111  0.50000  1.0000
  N   N492      1.0  0.39259  0.51852  0.50000  1.0000
  X   X312      1.0  0.37778  0.53333  0.50000  1.0000
  N   N493      1.0  0.39259  0.54074  0.50000  1.0000
  N   N494      1.0  0.37778  0.55556  0.50000  1.0000
  C   C776      1.0  0.39259  0.56296  0.50000  1.0000
  C   C777      1.0  0.37778  0.57778  0.50000  1.0000
  C   C778      1.0  0.39259  0.58519  0.50000  1.0000
  C   C779      1.0  0.37778  0.60000  0.50000  1.0000
  C   C780      1.0  0.39259  0.60741  0.50000  1.0000
  C   C781      1.0  0.37778  0.62222  0.50000  1.0000
  C   C782      1.0  0.39259  0.62963  0.50000  1.0000
  C   C783      1.0  0.37778  0.64444  0.50000  1.0000
  C   C784      1.0  0.39259  0.65185  0.50000  1.0000
  C   C785      1.0  0.37778  0.66667  0.50000  1.0000
  C   C786      1.0  0.39259  0.67407  0.50000  1.0000
  N   N495      1.0  0.37778  0.68889  0.50000  1.0000
  C   C787      1.0  0.39259  0.69630  0.50000  1.0000
  N   N496      1.0  0.37778  0.71111  0.50000  1.0000
  C   C788      1.0  0.39259  0.71852  0.50000  1.0000
  X   X313      1.0  0.37778  0.73333  0.50000  1.0000
  N   N497      1.0  0.39259  0.74074  0.50000  1.0000
  N   N498      1.0  0.37778  0.75556  0.50000  1.0000
  X   X314      1.0  0.39259  0.76296  0.50000  1.0000
  C   C789      1.0  0.37778  0.77778  0.50000  1.0000
  C   C790      1.0  0.39259  0.78519  0.50000  1.0000
  N   N499      1.0  0.37778  0.80000  0.50000  1.0000
  N   N500      1.0  0.39259  0.80741  0.50000  1.0000
  N   N501      1.0  0.37778  0.82222  0.50000  1.0000
  N   N502      1.0  0.39259  0.82963  0.50000  1.0000
  N   N503      1.0  0.37778  0.84444  0.50000  1.0000
  C   C791      1.0  0.39259  0.85185  0.50000  1.0000
  N   N504      1.0  0.37778  0.86667  0.50000  1.0000
  X   X315      1.0  0.39259  0.87407  0.50000  1.0000
  C   C792      1.0  0.37778  0.88889  0.50000  1.0000
  N   N505      1.0  0.39259  0.89630  0.50000  1.0000
  C   C793      1.0  0.37778  0.91111  0.50000  1.0000
  N   N506      1.0  0.39259  0.91852  0.50000  1.0000
  C   C794      1.0  0.37778  0.93333  0.50000  1.0000
  N   N507      1.0  0.39259  0.94074  0.50000  1.0000
  C   C795      1.0  0.37778  0.95556  0.50000  1.0000
  N   N508      1.0  0.39259  0.96296  0.50000  1.0000
  C   C796      1.0  0.37778  0.97778  0.50000  1.0000
  C   C797      1.0  0.39259  0.98519  0.50000  1.0000
  N   N509      1.0  0.40000  0.00000  0.50000  1.0000
  C   C798      1.0  0.41481  0.00741  0.50000  1.0000
  X   X316      1.0  0.40000  0.02222  0.50000  1.0000
  N   N510      1.0  0.41481  0.02963  0.50000  1.0000
  N   N511      1.0  0.40000  0.04444  0.50000  1.0000
  X   X317      1.0  0.41481  0.05185  0.50000  1.0000
  X   X318      1.0  0.40000  0.06667  0.50000  1.0000
  X   X319      1.0  0.41481  0.07407  0.50000  1.0000
  N   N512      1.0  0.40000  0.08889  0.50000  1.0000
  X   X320      1.0  0.41481  0.09630  0.50000  1.0000
  N   N513      1.0  0.40000  0.11111  0.50000  1.0000
  N   N514      1.0  0.41481  0.11852  0.50000  1.0000
  C   C799      1.0  0.40000  0.13333  0.50000  1.0000
  C   C800      1.0  0.41481  0.14074  0.50000  1.0000
  N   N515      1.0  0.40000  0.15556  0.50000  1.0000
  X   X321      1.0  0.41481  0.16296  0.50000  1.0000
  C   C801      1.0  0.40000  0.17778  0.50000  1.0000
  N   N516      1.0  0.41481  0.18519  0.50000  1.0000
  X   X322      1.0  0.40000  0.20000  0.50000  1.0000
  X   X323      1.0  0.41481  0.20741  0.50000  1.0000
  C   C802      1.0  0.40000  0.22222  0.50000  1.0000
  C   C803      1.0  0.41481  0.22963  0.50000  1.0000
  C   C804      1.0  0.40000  0.24444  0.50000  1.0000
  C   C805      1.0  0.41481  0.25185  0.50000  1.0000
  C   C806      1.0  0.40000  0.26667  0.50000  1.0000
  C   C807      1.0  0.41481  0.27407  0.50000  1.0000
  N   N517      1.0  0.40000  0.28889  0.50000  1.0000
  X   X324      1.0  0.41481  0.29630  0.50000  1.0000
  X   X325      1.0  0.40000  0.31111  0.50000  1.0000
  N   N518      1.0  0.41481  0.31852  0.50000  1.0000
  C   C808      1.0  0.40000  0.33333  0.50000  1.0000
  C   C809      1.0  0.41481  0.34074  0.50000  1.0000
  X   X326      1.0  0.40000  0.35556  0.50000  1.0000
  N   N519      1.0  0.41481  0.36296  0.50000  1.0000
  N   N520      1.0  0.40000  0.37778  0.50000  1.0000
  C   C810      1.0  0.41481  0.38519  0.50000  1.0000
  X   X327      1.0  0.40000  0.40000  0.50000  1.0000
  N   N521      1.0  0.41481  0.40741  0.50000  1.0000
  N   N522      1.0  0.40000  0.42222  0.50000  1.0000
  X   X328      1.0  0.41481  0.42963  0.50000  1.0000
  C   C811      1.0  0.40000  0.44444  0.50000  1.0000
  N   N523      1.0  0.41481  0.45185  0.50000  1.0000
  N   N524      1.0  0.40000  0.46667  0.50000  1.0000
  X   X329      1.0  0.41481  0.47407  0.50000  1.0000
  X   X330      1.0  0.40000  0.48889  0.50000  1.0000
  N   N525      1.0  0.41481  0.49630  0.50000  1.0000
  C   C812      1.0  0.40000  0.51111  0.50000  1.0000
  C   C813      1.0  0.41481  0.51852  0.50000  1.0000
  X   X331      1.0  0.40000  0.53333  0.50000  1.0000
  X   X332      1.0  0.41481  0.54074  0.50000  1.0000
  C   C814      1.0  0.40000  0.55556  0.50000  1.0000
  C   C815      1.0  0.41481  0.56296  0.50000  1.0000
  C   C816      1.0  0.40000  0.57778  0.50000  1.0000
  C   C817      1.0  0.41481  0.58519  0.50000  1.0000
  C   C818      1.0  0.40000  0.60000  0.50000  1.0000
  C   C819      1.0  0.41481  0.60741  0.50000  1.0000
  C   C820      1.0  0.40000  0.62222  0.50000  1.0000
  N   N526      1.0  0.41481  0.62963  0.50000  1.0000
  C   C821      1.0  0.40000  0.64444  0.50000  1.0000
  N   N527      1.0  0.41481  0.65185  0.50000  1.0000
  C   C822      1.0  0.40000  0.66667  0.50000  1.0000
  N   N528      1.0  0.41481  0.67407  0.50000  1.0000
  C   C823      1.0  0.40000  0.68889  0.50000  1.0000
  C   C824      1.0  0.41481  0.69630  0.50000  1.0000
  N   N529      1.0  0.40000  0.71111  0.50000  1.0000
  X   X333      1.0  0.41481  0.71852  0.50000  1.0000
  C   C825      1.0  0.40000  0.73333  0.50000  1.0000
  N   N530      1.0  0.41481  0.74074  0.50000  1.0000
  X   X334      1.0  0.40000  0.75556  0.50000  1.0000
  N   N531      1.0  0.41481  0.76296  0.50000  1.0000
  N   N532      1.0  0.40000  0.77778  0.50000  1.0000
  N   N533      1.0  0.41481  0.78519  0.50000  1.0000
  C   C826      1.0  0.40000  0.80000  0.50000  1.0000
  C   C827      1.0  0.41481  0.80741  0.50000  1.0000
  X   X335      1.0  0.40000  0.82222  0.50000  1.0000
  X   X336      1.0  0.41481  0.82963  0.50000  1.0000
  C   C828      1.0  0.40000  0.84444  0.50000  1.0000
  C   C829      1.0  0.41481  0.85185  0.50000  1.0000
  N   N534      1.0  0.40000  0.86667  0.50000  1.0000
  X   X337      1.0  0.41481  0.87407  0.50000  1.0000
  X   X338      1.0  0.40000  0.88889  0.50000  1.0000
  N   N535      1.0  0.41481  0.89630  0.50000  1.0000
  X   X339      1.0  0.40000  0.91111  0.50000  1.0000
  X   X340      1.0  0.41481  0.91852  0.50000  1.0000
  C   C830      1.0  0.40000  0.93333  0.50000  1.0000
  C   C831      1.0  0.41481  0.94074  0.50000  1.0000
  X   X341      1.0  0.40000  0.95556  0.50000  1.0000
  X   X342      1.0  0.41481  0.96296  0.50000  1.0000
  C   C832      1.0  0.40000  0.97778  0.50000  1.0000
  C   C833      1.0  0.41481  0.98519  0.50000  1.0000
  C   C834      1.0  0.42222  0.00000  0.50000  1.0000
  C   C835      1.0  0.43704  0.00741  0.50000  1.0000
  C   C836      1.0  0.42222  0.02222  0.50000  1.0000
  C   C837      1.0  0.43704  0.02963  0.50000  1.0000
  X   X343      1.0  0.42222  0.04444  0.50000  1.0000
  N   N536      1.0  0.43704  0.05185  0.50000  1.0000
  N   N537      1.0  0.42222  0.06667  0.50000  1.0000
  X   X344      1.0  0.43704  0.07407  0.50000  1.0000
  N   N538      1.0  0.42222  0.08889  0.50000  1.0000
  N   N539      1.0  0.43704  0.09630  0.50000  1.0000
  X   X345      1.0  0.42222  0.11111  0.50000  1.0000
  N   N540      1.0  0.43704  0.11852  0.50000  1.0000
  C   C838      1.0  0.42222  0.13333  0.50000  1.0000
  C   C839      1.0  0.43704  0.14074  0.50000  1.0000
  N   N541      1.0  0.42222  0.15556  0.50000  1.0000
  C   C840      1.0  0.43704  0.16296  0.50000  1.0000
  X   X346      1.0  0.42222  0.17778  0.50000  1.0000
  N   N542      1.0  0.43704  0.18519  0.50000  1.0000
  N   N543      1.0  0.42222  0.20000  0.50000  1.0000
  N   N544      1.0  0.43704  0.20741  0.50000  1.0000
  N   N545      1.0  0.42222  0.22222  0.50000  1.0000
  N   N546      1.0  0.43704  0.22963  0.50000  1.0000
  C   C841      1.0  0.42222  0.24444  0.50000  1.0000
  C   C842      1.0  0.43704  0.25185  0.50000  1.0000
  C   C843      1.0  0.42222  0.26667  0.50000  1.0000
  C   C844      1.0  0.43704  0.27407  0.50000  1.0000
  N   N547      1.0  0.42222  0.28889  0.50000  1.0000
  N   N548      1.0  0.43704  0.29630  0.50000  1.0000
  X   X347      1.0  0.42222  0.31111  0.50000  1.0000
  N   N549      1.0  0.43704  0.31852  0.50000  1.0000
  C   C845      1.0  0.42222  0.33333  0.50000  1.0000
  N   N550      1.0  0.43704  0.34074  0.50000  1.0000
  N   N551      1.0  0.42222  0.35556  0.50000  1.0000
  X   X348      1.0  0.43704  0.36296  0.50000  1.0000
  C   C846      1.0  0.42222  0.37778  0.50000  1.0000
  C   C847      1.0  0.43704  0.38519  0.50000  1.0000
  C   C848      1.0  0.42222  0.40000  0.50000  1.0000
  C   C849      1.0  0.43704  0.40741  0.50000  1.0000
  X   X349      1.0  0.42222  0.42222  0.50000  1.0000
  N   N552      1.0  0.43704  0.42963  0.50000  1.0000
  N   N553      1.0  0.42222  0.44444  0.50000  1.0000
  C   C850      1.0  0.43704  0.45185  0.50000  1.0000
  X   X350      1.0  0.42222  0.46667  0.50000  1.0000
  N   N554      1.0  0.43704  0.47407  0.50000  1.0000
  N   N555      1.0  0.42222  0.48889  0.50000  1.0000
  C   C851      1.0  0.43704  0.49630  0.50000  1.0000
  C   C852      1.0  0.42222  0.51111  0.50000  1.0000
  C   C853      1.0  0.43704  0.51852  0.50000  1.0000
  N   N556      1.0  0.42222  0.53333  0.50000  1.0000
  C   C854      1.0  0.43704  0.54074  0.50000  1.0000
  N   N557      1.0  0.42222  0.55556  0.50000  1.0000
  C   C855      1.0  0.43704  0.56296  0.50000  1.0000
  C   C856      1.0  0.42222  0.57778  0.50000  1.0000
  C   C857      1.0  0.43704  0.58519  0.50000  1.0000
  C   C858      1.0  0.42222  0.60000  0.50000  1.0000
  C   C859      1.0  0.43704  0.60741  0.50000  1.0000
  C   C860      1.0  0.42222  0.62222  0.50000  1.0000
  C   C861      1.0  0.43704  0.62963  0.50000  1.0000
  X   X351      1.0  0.42222  0.64444  0.50000  1.0000
  X   X352      1.0  0.43704  0.65185  0.50000  1.0000
  X   X353      1.0  0.42222  0.66667  0.50000  1.0000
  X   X354      1.0  0.43704  0.67407  0.50000  1.0000
  C   C862      1.0  0.42222  0.68889  0.50000  1.0000
  C   C863      1.0  0.43704  0.69630  0.50000  1.0000
  N   N558      1.0  0.42222  0.71111  0.50000  1.0000
  C   C864      1.0  0.43704  0.71852  0.50000  1.0000
  X   X355      1.0  0.42222  0.73333  0.50000  1.0000
  N   N559      1.0  0.43704  0.74074  0.50000  1.0000
  C   C865      1.0  0.42222  0.75556  0.50000  1.0000
  C   C866      1.0  0.43704  0.76296  0.50000  1.0000
  X   X356      1.0  0.42222  0.77778  0.50000  1.0000
  X   X357      1.0  0.43704  0.78519  0.50000  1.0000
  C   C867      1.0  0.42222  0.80000  0.50000  1.0000
  C   C868      1.0  0.43704  0.80741  0.50000  1.0000
  N   N560      1.0  0.42222  0.82222  0.50000  1.0000
  N   N561      1.0  0.43704  0.82963  0.50000  1.0000
  N   N562      1.0  0.42222  0.84444  0.50000  1.0000
  X   X358      1.0  0.43704  0.85185  0.50000  1.0000
  N   N563      1.0  0.42222  0.86667  0.50000  1.0000
  C   C869      1.0  0.43704  0.87407  0.50000  1.0000
  X   X359      1.0  0.42222  0.88889  0.50000  1.0000
  N   N564      1.0  0.43704  0.89630  0.50000  1.0000
  N   N565      1.0  0.42222  0.91111  0.50000  1.0000
  C   C870      1.0  0.43704  0.91852  0.50000  1.0000
  N   N566      1.0  0.42222  0.93333  0.50000  1.0000
  C   C871      1.0  0.43704  0.94074  0.50000  1.0000
  N   N567      1.0  0.42222  0.95556  0.50000  1.0000
  X   X360      1.0  0.43704  0.96296  0.50000  1.0000
  N   N568      1.0  0.42222  0.97778  0.50000  1.0000
  N   N569      1.0  0.43704  0.98519  0.50000  1.0000
  C   C872      1.0  0.44444  0.00000  0.50000  1.0000
  C   C873      1.0  0.45926  0.00741  0.50000  1.0000
  C   C874      1.0  0.44444  0.02222  0.50000  1.0000
  C   C875      1.0  0.45926  0.02963  0.50000  1.0000
  C   C876      1.0  0.44444  0.04444  0.50000  1.0000
  C   C877      1.0  0.45926  0.05185  0.50000  1.0000
  N   N570      1.0  0.44444  0.06667  0.50000  1.0000
  C   C878      1.0  0.45926  0.07407  0.50000  1.0000
  X   X361      1.0  0.44444  0.08889  0.50000  1.0000
  N   N571      1.0  0.45926  0.09630  0.50000  1.0000
  C   C879      1.0  0.44444  0.11111  0.50000  1.0000
  C   C880      1.0  0.45926  0.11852  0.50000  1.0000
  C   C881      1.0  0.44444  0.13333  0.50000  1.0000
  N   N572      1.0  0.45926  0.14074  0.50000  1.0000
  N   N573      1.0  0.44444  0.15556  0.50000  1.0000
  X   X362      1.0  0.45926  0.16296  0.50000  1.0000
  C   C882      1.0  0.44444  0.17778  0.50000  1.0000
  C   C883      1.0  0.45926  0.18519  0.50000  1.0000
  C   C884      1.0  0.44444  0.20000  0.50000  1.0000
  C   C885      1.0  0.45926  0.20741  0.50000  1.0000
  X   X363      1.0  0.44444  0.22222  0.50000  1.0000
  X   X364      1.0  0.45926  0.22963  0.50000  1.0000
  C   C886      1.0  0.44444  0.24444  0.50000  1.0000
  C   C887      1.0  0.45926  0.25185  0.50000  1.0000
  N   N574      1.0  0.44444  0.26667  0.50000  1.0000
  X   X365      1.0  0.45926  0.27407  0.50000  1.0000
  C   C888      1.0  0.44444  0.28889  0.50000  1.0000
  N   N575      1.0  0.45926  0.29630  0.50000  1.0000
  X   X366      1.0  0.44444  0.31111  0.50000  1.0000
  X   X367      1.0  0.45926  0.31852  0.50000  1.0000
  C   C889      1.0  0.44444  0.33333  0.50000  1.0000
  C   C890      1.0  0.45926  0.34074  0.50000  1.0000
  X   X368      1.0  0.44444  0.35556  0.50000  1.0000
  N   N576      1.0  0.45926  0.36296  0.50000  1.0000
  N   N577      1.0  0.44444  0.37778  0.50000  1.0000
  C   C891      1.0  0.45926  0.38519  0.50000  1.0000
  C   C892      1.0  0.44444  0.40000  0.50000  1.0000
  C   C893      1.0  0.45926  0.40741  0.50000  1.0000
  C   C894      1.0  0.44444  0.42222  0.50000  1.0000
  C   C895      1.0  0.45926  0.42963  0.50000  1.0000
  C   C896      1.0  0.44444  0.44444  0.50000  1.0000
  C   C897      1.0  0.45926  0.45185  0.50000  1.0000
  C   C898      1.0  0.44444  0.46667  0.50000  1.0000
  N   N578      1.0  0.45926  0.47407  0.50000  1.0000
  C   C899      1.0  0.44444  0.48889  0.50000  1.0000
  N   N579      1.0  0.45926  0.49630  0.50000  1.0000
  C   C900      1.0  0.44444  0.51111  0.50000  1.0000
  C   C901      1.0  0.45926  0.51852  0.50000  1.0000
  C   C902      1.0  0.44444  0.53333  0.50000  1.0000
  N   N580      1.0  0.45926  0.54074  0.50000  1.0000
  C   C903      1.0  0.44444  0.55556  0.50000  1.0000
  N   N581      1.0  0.45926  0.56296  0.50000  1.0000
  C   C904      1.0  0.44444  0.57778  0.50000  1.0000
  C   C905      1.0  0.45926  0.58519  0.50000  1.0000
  C   C906      1.0  0.44444  0.60000  0.50000  1.0000
  C   C907      1.0  0.45926  0.60741  0.50000  1.0000
  C   C908      1.0  0.44444  0.62222  0.50000  1.0000
  C   C909      1.0  0.45926  0.62963  0.50000  1.0000
  N   N582      1.0  0.44444  0.64444  0.50000  1.0000
  X   X369      1.0  0.45926  0.65185  0.50000  1.0000
  N   N583      1.0  0.44444  0.66667  0.50000  1.0000
  N   N584      1.0  0.45926  0.67407  0.50000  1.0000
  N   N585      1.0  0.44444  0.68889  0.50000  1.0000
  N   N586      1.0  0.45926  0.69630  0.50000  1.0000
  C   C910      1.0  0.44444  0.71111  0.50000  1.0000
  C   C911      1.0  0.45926  0.71852  0.50000  1.0000
  C   C912      1.0  0.44444  0.73333  0.50000  1.0000
  C   C913      1.0  0.45926  0.74074  0.50000  1.0000
  C   C914      1.0  0.44444  0.75556  0.50000  1.0000
  C   C915      1.0  0.45926  0.76296  0.50000  1.0000
  N   N587      1.0  0.44444  0.77778  0.50000  1.0000
  C   C916      1.0  0.45926  0.78519  0.50000  1.0000
  N   N588      1.0  0.44444  0.80000  0.50000  1.0000
  C   C917      1.0  0.45926  0.80741  0.50000  1.0000
  C   C918      1.0  0.44444  0.82222  0.50000  1.0000
  C   C919      1.0  0.45926  0.82963  0.50000  1.0000
  X   X370      1.0  0.44444  0.84444  0.50000  1.0000
  N   N589      1.0  0.45926  0.85185  0.50000  1.0000
  N   N590      1.0  0.44444  0.86667  0.50000  1.0000
  N   N591      1.0  0.45926  0.87407  0.50000  1.0000
  C   C920      1.0  0.44444  0.88889  0.50000  1.0000
  N   N592      1.0  0.45926  0.89630  0.50000  1.0000
  C   C921      1.0  0.44444  0.91111  0.50000  1.0000
  N   N593      1.0  0.45926  0.91852  0.50000  1.0000
  C   C922      1.0  0.44444  0.93333  0.50000  1.0000
  N   N594      1.0  0.45926  0.94074  0.50000  1.0000
  N   N595      1.0  0.44444  0.95556  0.50000  1.0000
  C   C923      1.0  0.45926  0.96296  0.50000  1.0000
  X   X371      1.0  0.44444  0.97778  0.50000  1.0000
  N   N596      1.0  0.45926  0.98519  0.50000  1.0000
  C   C924      1.0  0.46667  0.00000  0.50000  1.0000
  N   N597      1.0  0.48148  0.00741  0.50000  1.0000
  N   N598      1.0  0.46667  0.02222  0.50000  1.0000
  X   X372      1.0  0.48148  0.02963  0.50000  1.0000
  C   C925      1.0  0.46667  0.04444  0.50000  1.0000
  C   C926      1.0  0.48148  0.05185  0.50000  1.0000
  C   C927      1.0  0.46667  0.06667  0.50000  1.0000
  C   C928      1.0  0.48148  0.07407  0.50000  1.0000
  C   C929      1.0  0.46667  0.08889  0.50000  1.0000
  N   N599      1.0  0.48148  0.09630  0.50000  1.0000
  N   N600      1.0  0.46667  0.11111  0.50000  1.0000
  X   X373      1.0  0.48148  0.11852  0.50000  1.0000
  C   C930      1.0  0.46667  0.13333  0.50000  1.0000
  C   C931      1.0  0.48148  0.14074  0.50000  1.0000
  X   X374      1.0  0.46667  0.15556  0.50000  1.0000
  N   N601      1.0  0.48148  0.16296  0.50000  1.0000
  N   N602      1.0  0.46667  0.17778  0.50000  1.0000
  C   C932      1.0  0.48148  0.18519  0.50000  1.0000
  C   C933      1.0  0.46667  0.20000  0.50000  1.0000
  C   C934      1.0  0.48148  0.20741  0.50000  1.0000
  N   N603      1.0  0.46667  0.22222  0.50000  1.0000
  C   C935      1.0  0.48148  0.22963  0.50000  1.0000
  N   N604      1.0  0.46667  0.24444  0.50000  1.0000
  C   C936      1.0  0.48148  0.25185  0.50000  1.0000
  N   N605      1.0  0.46667  0.26667  0.50000  1.0000
  X   X375      1.0  0.48148  0.27407  0.50000  1.0000
  X   X376      1.0  0.46667  0.28889  0.50000  1.0000
  N   N606      1.0  0.48148  0.29630  0.50000  1.0000
  N   N607      1.0  0.46667  0.31111  0.50000  1.0000
  C   C937      1.0  0.48148  0.31852  0.50000  1.0000
  N   N608      1.0  0.46667  0.33333  0.50000  1.0000
  N   N609      1.0  0.48148  0.34074  0.50000  1.0000
  N   N610      1.0  0.46667  0.35556  0.50000  1.0000
  X   X377      1.0  0.48148  0.36296  0.50000  1.0000
  N   N611      1.0  0.46667  0.37778  0.50000  1.0000
  X   X378      1.0  0.48148  0.38519  0.50000  1.0000
  C   C938      1.0  0.46667  0.40000  0.50000  1.0000
  N   N612      1.0  0.48148  0.40741  0.50000  1.0000
  N   N613      1.0  0.46667  0.42222  0.50000  1.0000
  X   X379      1.0  0.48148  0.42963  0.50000  1.0000
  C   C939      1.0  0.46667  0.44444  0.50000  1.0000
  N   N614      1.0  0.48148  0.45185  0.50000  1.0000
  C   C940      1.0  0.46667  0.46667  0.50000  1.0000
  C   C941      1.0  0.48148  0.47407  0.50000  1.0000
  X   X380      1.0  0.46667  0.48889  0.50000  1.0000
  X   X381      1.0  0.48148  0.49630  0.50000  1.0000
  C   C942      1.0  0.46667  0.51111  0.50000  1.0000
  N   N615      1.0  0.48148  0.51852  0.50000  1.0000
  N   N616      1.0  0.46667  0.53333  0.50000  1.0000
  X   X382      1.0  0.48148  0.54074  0.50000  1.0000
  X   X383      1.0  0.46667  0.55556  0.50000  1.0000
  X   X384      1.0  0.48148  0.56296  0.50000  1.0000
  C   C943      1.0  0.46667  0.57778  0.50000  1.0000
  C   C944      1.0  0.48148  0.58519  0.50000  1.0000
  C   C945      1.0  0.46667  0.60000  0.50000  1.0000
  N   N617      1.0  0.48148  0.60741  0.50000  1.0000
  N   N618      1.0  0.46667  0.62222  0.50000  1.0000
  X   X385      1.0  0.48148  0.62963  0.50000  1.0000
  N   N619      1.0  0.46667  0.64444  0.50000  1.0000
  C   C946      1.0  0.48148  0.65185  0.50000  1.0000
  X   X386      1.0  0.46667  0.66667  0.50000  1.0000
  N   N620      1.0  0.48148  0.67407  0.50000  1.0000
  X   X387      1.0  0.46667  0.68889  0.50000  1.0000
  X   X388      1.0  0.48148  0.69630  0.50000  1.0000
  N   N621      1.0  0.46667  0.71111  0.50000  1.0000
  X   X389      1.0  0.48148  0.71852  0.50000  1.0000
  C   C947      1.0  0.46667  0.73333  0.50000  1.0000
  N   N622      1.0  0.48148  0.74074  0.50000  1.0000
  C   C948      1.0  0.46667  0.75556  0.50000  1.0000
  C   C949      1.0  0.48148  0.76296  0.50000  1.0000
  C   C950      1.0  0.46667  0.77778  0.50000  1.0000
  N   N623      1.0  0.48148  0.78519  0.50000  1.0000
  C   C951      1.0  0.46667  0.80000  0.50000  1.0000
  N   N624      1.0  0.48148  0.80741  0.50000  1.0000
  C   C952      1.0  0.46667  0.82222  0.50000  1.0000
  N   N625      1.0  0.48148  0.82963  0.50000  1.0000
  C   C953      1.0  0.46667  0.84444  0.50000  1.0000
  C   C954      1.0  0.48148  0.85185  0.50000  1.0000
  C   C955      1.0  0.46667  0.86667  0.50000  1.0000
  C   C956      1.0  0.48148  0.87407  0.50000  1.0000
  X   X390      1.0  0.46667  0.88889  0.50000  1.0000
  X   X391      1.0  0.48148  0.89630  0.50000  1.0000
  C   C957      1.0  0.46667  0.91111  0.50000  1.0000
  C   C958      1.0  0.48148  0.91852  0.50000  1.0000
  X   X392      1.0  0.46667  0.93333  0.50000  1.0000
  X   X393      1.0  0.48148  0.94074  0.50000  1.0000
  N   N626      1.0  0.46667  0.95556  0.50000  1.0000
  X   X394      1.0  0.48148  0.96296  0.50000  1.0000
  C   C959      1.0  0.46667  0.97778  0.50000  1.0000
  N   N627      1.0  0.48148  0.98519  0.50000  1.0000
  C   C960      1.0  0.48889  0.00000  0.50000  1.0000
  C   C961      1.0  0.50370  0.00741  0.50000  1.0000
  X   X395      1.0  0.48889  0.02222  0.50000  1.0000
  N   N628      1.0  0.50370  0.02963  0.50000  1.0000
  N   N629      1.0  0.48889  0.04444  0.50000  1.0000
  N   N630      1.0  0.50370  0.05185  0.50000  1.0000
  C   C962      1.0  0.48889  0.06667  0.50000  1.0000
  C   C963      1.0  0.50370  0.07407  0.50000  1.0000
  C   C964      1.0  0.48889  0.08889  0.50000  1.0000
  N   N631      1.0  0.50370  0.09630  0.50000  1.0000
  X   X396      1.0  0.48889  0.11111  0.50000  1.0000
  N   N632      1.0  0.50370  0.11852  0.50000  1.0000
  N   N633      1.0  0.48889  0.13333  0.50000  1.0000
  C   C965      1.0  0.50370  0.14074  0.50000  1.0000
  N   N634      1.0  0.48889  0.15556  0.50000  1.0000
  X   X397      1.0  0.50370  0.16296  0.50000  1.0000
  C   C966      1.0  0.48889  0.17778  0.50000  1.0000
  N   N635      1.0  0.50370  0.18519  0.50000  1.0000
  C   C967      1.0  0.48889  0.20000  0.50000  1.0000
  N   N636      1.0  0.50370  0.20741  0.50000  1.0000
  C   C968      1.0  0.48889  0.22222  0.50000  1.0000
  C   C969      1.0  0.50370  0.22963  0.50000  1.0000
  C   C970      1.0  0.48889  0.24444  0.50000  1.0000
  C   C971      1.0  0.50370  0.25185  0.50000  1.0000
  N   N637      1.0  0.48889  0.26667  0.50000  1.0000
  C   C972      1.0  0.50370  0.27407  0.50000  1.0000
  X   X398      1.0  0.48889  0.28889  0.50000  1.0000
  N   N638      1.0  0.50370  0.29630  0.50000  1.0000
  C   C973      1.0  0.48889  0.31111  0.50000  1.0000
  C   C974      1.0  0.50370  0.31852  0.50000  1.0000
  C   C975      1.0  0.48889  0.33333  0.50000  1.0000
  C   C976      1.0  0.50370  0.34074  0.50000  1.0000
  X   X399      1.0  0.48889  0.35556  0.50000  1.0000
  N   N639      1.0  0.50370  0.36296  0.50000  1.0000
  N   N640      1.0  0.48889  0.37778  0.50000  1.0000
  X   X400      1.0  0.50370  0.38519  0.50000  1.0000
  X   X401      1.0  0.48889  0.40000  0.50000  1.0000
  N   N641      1.0  0.50370  0.40741  0.50000  1.0000
  N   N642      1.0  0.48889  0.42222  0.50000  1.0000
  C   C977      1.0  0.50370  0.42963  0.50000  1.0000
  X   X402      1.0  0.48889  0.44444  0.50000  1.0000
  N   N643      1.0  0.50370  0.45185  0.50000  1.0000
  C   C978      1.0  0.48889  0.46667  0.50000  1.0000
  N   N644      1.0  0.50370  0.47407  0.50000  1.0000
  N   N645      1.0  0.48889  0.48889  0.50000  1.0000
  N   N646      1.0  0.50370  0.49630  0.50000  1.0000
  N   N647      1.0  0.48889  0.51111  0.50000  1.0000
  X   X403      1.0  0.50370  0.51852  0.50000  1.0000
  X   X404      1.0  0.48889  0.53333  0.50000  1.0000
  N   N648      1.0  0.50370  0.54074  0.50000  1.0000
  N   N649      1.0  0.48889  0.55556  0.50000  1.0000
  C   C979      1.0  0.50370  0.56296  0.50000  1.0000
  N   N650      1.0  0.48889  0.57778  0.50000  1.0000
  C   C980      1.0  0.50370  0.58519  0.50000  1.0000
  C   C981      1.0  0.48889  0.60000  0.50000  1.0000
  C   C982      1.0  0.50370  0.60741  0.50000  1.0000
  X   X405      1.0  0.48889  0.62222  0.50000  1.0000
  N   N651      1.0  0.50370  0.62963  0.50000  1.0000
  N   N652      1.0  0.48889  0.64444  0.50000  1.0000
  C   C983      1.0  0.50370  0.65185  0.50000  1.0000
  C   C984      1.0  0.48889  0.66667  0.50000  1.0000
  C   C985      1.0  0.50370  0.67407  0.50000  1.0000
  N   N653      1.0  0.48889  0.68889  0.50000  1.0000
  C   C986      1.0  0.50370  0.69630  0.50000  1.0000
  N   N654      1.0  0.48889  0.71111  0.50000  1.0000
  X   X406      1.0  0.50370  0.71852  0.50000  1.0000
  X   X407      1.0  0.48889  0.73333  0.50000  1.0000
  N   N655      1.0  0.50370  0.74074  0.50000  1.0000
  C   C987      1.0  0.48889  0.75556  0.50000  1.0000
  C   C988      1.0  0.50370  0.76296  0.50000  1.0000
  C   C989      1.0  0.48889  0.77778  0.50000  1.0000
  C   C990      1.0  0.50370  0.78519  0.50000  1.0000
  X   X408      1.0  0.48889  0.80000  0.50000  1.0000
  X   X409      1.0  0.50370  0.80741  0.50000  1.0000
  X   X410      1.0  0.48889  0.82222  0.50000  1.0000
  X   X411      1.0  0.50370  0.82963  0.50000  1.0000
  C   C991      1.0  0.48889  0.84444  0.50000  1.0000
  N   N656      1.0  0.50370  0.85185  0.50000  1.0000
  C   C992      1.0  0.48889  0.86667  0.50000  1.0000
  N   N657      1.0  0.50370  0.87407  0.50000  1.0000
  N   N658      1.0  0.48889  0.88889  0.50000  1.0000
  C   C993      1.0  0.50370  0.89630  0.50000  1.0000
  N   N659      1.0  0.48889  0.91111  0.50000  1.0000
  X   X412      1.0  0.50370  0.91852  0.50000  1.0000
  N   N660      1.0  0.48889  0.93333  0.50000  1.0000
  N   N661      1.0  0.50370  0.94074  0.50000  1.0000
  N   N662      1.0  0.48889  0.95556  0.50000  1.0000
  C   C994      1.0  0.50370  0.96296  0.50000  1.0000
  X   X413      1.0  0.48889  0.97778  0.50000  1.0000
  N   N663      1.0  0.50370  0.98519  0.50000  1.0000
  C   C995      1.0  0.51111  0.00000  0.50000  1.0000
  C   C996      1.0  0.52593  0.00741  0.50000  1.0000
  C   C997      1.0  0.51111  0.02222  0.50000  1.0000
  C   C998      1.0  0.52593  0.02963  0.50000  1.0000
  X   X414      1.0  0.51111  0.04444  0.50000  1.0000
  X   X415      1.0  0.52593  0.05185  0.50000  1.0000
  C   C999      1.0  0.51111  0.06667  0.50000  1.0000
  C   C1000     1.0  0.52593  0.07407  0.50000  1.0000
  C   C1001     1.0  0.51111  0.08889  0.50000  1.0000
  C   C1002     1.0  0.52593  0.09630  0.50000  1.0000
  X   X416      1.0  0.51111  0.11111  0.50000  1.0000
  X   X417      1.0  0.52593  0.11852  0.50000  1.0000
  C   C1003     1.0  0.51111  0.13333  0.50000  1.0000
  C   C1004     1.0  0.52593  0.14074  0.50000  1.0000
  N   N664      1.0  0.51111  0.15556  0.50000  1.0000
  C   C1005     1.0  0.52593  0.16296  0.50000  1.0000
  X   X418      1.0  0.51111  0.17778  0.50000  1.0000
  N   N665      1.0  0.52593  0.18519  0.50000  1.0000
  X   X419      1.0  0.51111  0.20000  0.50000  1.0000
  X   X420      1.0  0.52593  0.20741  0.50000  1.0000
  C   C1006     1.0  0.51111  0.22222  0.50000  1.0000
  C   C1007     1.0  0.52593  0.22963  0.50000  1.0000
  C   C1008     1.0  0.51111  0.24444  0.50000  1.0000
  C   C1009     1.0  0.52593  0.25185  0.50000  1.0000
  C   C1010     1.0  0.51111  0.26667  0.50000  1.0000
  N   N666      1.0  0.52593  0.27407  0.50000  1.0000
  N   N667      1.0  0.51111  0.28889  0.50000  1.0000
  X   X421      1.0  0.52593  0.29630  0.50000  1.0000
  C   C1011     1.0  0.51111  0.31111  0.50000  1.0000
  N   N668      1.0  0.52593  0.31852  0.50000  1.0000
  C   C1012     1.0  0.51111  0.33333  0.50000  1.0000
  N   N669      1.0  0.52593  0.34074  0.50000  1.0000
  N   N670      1.0  0.51111  0.35556  0.50000  1.0000
  X   X422      1.0  0.52593  0.36296  0.50000  1.0000
  X   X423      1.0  0.51111  0.37778  0.50000  1.0000
  N   N671      1.0  0.52593  0.38519  0.50000  1.0000
  N   N672      1.0  0.51111  0.40000  0.50000  1.0000
  C   C1013     1.0  0.52593  0.40741  0.50000  1.0000
  C   C1014     1.0  0.51111  0.42222  0.50000  1.0000
  C   C1015     1.0  0.52593  0.42963  0.50000  1.0000
  C   C1016     1.0  0.51111  0.44444  0.50000  1.0000
  N   N673      1.0  0.52593  0.45185  0.50000  1.0000
  C   C1017     1.0  0.51111  0.46667  0.50000  1.0000
  N   N674      1.0  0.52593  0.47407  0.50000  1.0000
  X   X424      1.0  0.51111  0.48889  0.50000  1.0000
  X   X425      1.0  0.52593  0.49630  0.50000  1.0000
  N   N675      1.0  0.51111  0.51111  0.50000  1.0000
  C   C1018     1.0  0.52593  0.51852  0.50000  1.0000
  X   X426      1.0  0.51111  0.53333  0.50000  1.0000
  N   N676      1.0  0.52593  0.54074  0.50000  1.0000
  C   C1019     1.0  0.51111  0.55556  0.50000  1.0000
  C   C1020     1.0  0.52593  0.56296  0.50000  1.0000
  C   C1021     1.0  0.51111  0.57778  0.50000  1.0000
  C   C1022     1.0  0.52593  0.58519  0.50000  1.0000
  C   C1023     1.0  0.51111  0.60000  0.50000  1.0000
  C   C1024     1.0  0.52593  0.60741  0.50000  1.0000
  C   C1025     1.0  0.51111  0.62222  0.50000  1.0000
  C   C1026     1.0  0.52593  0.62963  0.50000  1.0000
  C   C1027     1.0  0.51111  0.64444  0.50000  1.0000
  C   C1028     1.0  0.52593  0.65185  0.50000  1.0000
  C   C1029     1.0  0.51111  0.66667  0.50000  1.0000
  C   C1030     1.0  0.52593  0.67407  0.50000  1.0000
  C   C1031     1.0  0.51111  0.68889  0.50000  1.0000
  C   C1032     1.0  0.52593  0.69630  0.50000  1.0000
  N   N677      1.0  0.51111  0.71111  0.50000  1.0000
  C   C1033     1.0  0.52593  0.71852  0.50000  1.0000
  X   X427      1.0  0.51111  0.73333  0.50000  1.0000
  N   N678      1.0  0.52593  0.74074  0.50000  1.0000
  C   C1034     1.0  0.51111  0.75556  0.50000  1.0000
  C   C1035     1.0  0.52593  0.76296  0.50000  1.0000
  C   C1036     1.0  0.51111  0.77778  0.50000  1.0000
  C   C1037     1.0  0.52593  0.78519  0.50000  1.0000
  N   N679      1.0  0.51111  0.80000  0.50000  1.0000
  C   C1038     1.0  0.52593  0.80741  0.50000  1.0000
  N   N680      1.0  0.51111  0.82222  0.50000  1.0000
  N   N681      1.0  0.52593  0.82963  0.50000  1.0000
  N   N682      1.0  0.51111  0.84444  0.50000  1.0000
  X   X428      1.0  0.52593  0.85185  0.50000  1.0000
  X   X429      1.0  0.51111  0.86667  0.50000  1.0000
  X   X430      1.0  0.52593  0.87407  0.50000  1.0000
  C   C1039     1.0  0.51111  0.88889  0.50000  1.0000
  C   C1040     1.0  0.52593  0.89630  0.50000  1.0000
  N   N683      1.0  0.51111  0.91111  0.50000  1.0000
  X   X431      1.0  0.52593  0.91852  0.50000  1.0000
  X   X432      1.0  0.51111  0.93333  0.50000  1.0000
  N   N684      1.0  0.52593  0.94074  0.50000  1.0000
  C   C1041     1.0  0.51111  0.95556  0.50000  1.0000
  C   C1042     1.0  0.52593  0.96296  0.50000  1.0000
  C   C1043     1.0  0.51111  0.97778  0.50000  1.0000
  C   C1044     1.0  0.52593  0.98519  0.50000  1.0000
  C   C1045     1.0  0.53333  0.00000  0.50000  1.0000
  C   C1046     1.0  0.54815  0.00741  0.50000  1.0000
  C   C1047     1.0  0.53333  0.02222  0.50000  1.0000
  C   C1048     1.0  0.54815  0.02963  0.50000  1.0000
  N   N685      1.0  0.53333  0.04444  0.50000  1.0000
  C   C1049     1.0  0.54815  0.05185  0.50000  1.0000
  N   N686      1.0  0.53333  0.06667  0.50000  1.0000
  C   C1050     1.0  0.54815  0.07407  0.50000  1.0000
  C   C1051     1.0  0.53333  0.08889  0.50000  1.0000
  C   C1052     1.0  0.54815  0.09630  0.50000  1.0000
  N   N687      1.0  0.53333  0.11111  0.50000  1.0000
  C   C1053     1.0  0.54815  0.11852  0.50000  1.0000
  N   N688      1.0  0.53333  0.13333  0.50000  1.0000
  X   X433      1.0  0.54815  0.14074  0.50000  1.0000
  C   C1054     1.0  0.53333  0.15556  0.50000  1.0000
  N   N689      1.0  0.54815  0.16296  0.50000  1.0000
  N   N690      1.0  0.53333  0.17778  0.50000  1.0000
  X   X434      1.0  0.54815  0.18519  0.50000  1.0000
  N   N691      1.0  0.53333  0.20000  0.50000  1.0000
  N   N692      1.0  0.54815  0.20741  0.50000  1.0000
  N   N693      1.0  0.53333  0.22222  0.50000  1.0000
  N   N694      1.0  0.54815  0.22963  0.50000  1.0000
  C   C1055     1.0  0.53333  0.24444  0.50000  1.0000
  N   N695      1.0  0.54815  0.25185  0.50000  1.0000
  C   C1056     1.0  0.53333  0.26667  0.50000  1.0000
  N   N696      1.0  0.54815  0.27407  0.50000  1.0000
  X   X435      1.0  0.53333  0.28889  0.50000  1.0000
  N   N697      1.0  0.54815  0.29630  0.50000  1.0000
  N   N698      1.0  0.53333  0.31111  0.50000  1.0000
  X   X436      1.0  0.54815  0.31852  0.50000  1.0000
  X   X437      1.0  0.53333  0.33333  0.50000  1.0000
  X   X438      1.0  0.54815  0.34074  0.50000  1.0000
  N   N699      1.0  0.53333  0.35556  0.50000  1.0000
  C   C1057     1.0  0.54815  0.36296  0.50000  1.0000
  X   X439      1.0  0.53333  0.37778  0.50000  1.0000
  N   N700      1.0  0.54815  0.38519  0.50000  1.0000
  N   N701      1.0  0.53333  0.40000  0.50000  1.0000
  X   X440      1.0  0.54815  0.40741  0.50000  1.0000
  C   C1058     1.0  0.53333  0.42222  0.50000  1.0000
  N   N702      1.0  0.54815  0.42963  0.50000  1.0000
  N   N703      1.0  0.53333  0.44444  0.50000  1.0000
  X   X441      1.0  0.54815  0.45185  0.50000  1.0000
  X   X442      1.0  0.53333  0.46667  0.50000  1.0000
  X   X443      1.0  0.54815  0.47407  0.50000  1.0000
  N   N704      1.0  0.53333  0.48889  0.50000  1.0000
  X   X444      1.0  0.54815  0.49630  0.50000  1.0000
  N   N705      1.0  0.53333  0.51111  0.50000  1.0000
  N   N706      1.0  0.54815  0.51852  0.50000  1.0000
  C   C1059     1.0  0.53333  0.53333  0.50000  1.0000
  C   C1060     1.0  0.54815  0.54074  0.50000  1.0000
  C   C1061     1.0  0.53333  0.55556  0.50000  1.0000
  N   N707      1.0  0.54815  0.56296  0.50000  1.0000
  N   N708      1.0  0.53333  0.57778  0.50000  1.0000
  X   X445      1.0  0.54815  0.58519  0.50000  1.0000
  C   C1062     1.0  0.53333  0.60000  0.50000  1.0000
  C   C1063     1.0  0.54815  0.60741  0.50000  1.0000
  C   C1064     1.0  0.53333  0.62222  0.50000  1.0000
  N   N709      1.0  0.54815  0.62963  0.50000  1.0000
  C   C1065     1.0  0.53333  0.64444  0.50000  1.0000
  N   N710      1.0  0.54815  0.65185  0.50000  1.0000
  C   C1066     1.0  0.53333  0.66667  0.50000  1.0000
  C   C1067     1.0  0.54815  0.67407  0.50000  1.0000
  C   C1068     1.0  0.53333  0.68889  0.50000  1.0000
  C   C1069     1.0  0.54815  0.69630  0.50000  1.0000
  C   C1070     1.0  0.53333  0.71111  0.50000  1.0000
  C   C1071     1.0  0.54815  0.71852  0.50000  1.0000
  C   C1072     1.0  0.53333  0.73333  0.50000  1.0000
  C   C1073     1.0  0.54815  0.74074  0.50000  1.0000
  C   C1074     1.0  0.53333  0.75556  0.50000  1.0000
  C   C1075     1.0  0.54815  0.76296  0.50000  1.0000
  C   C1076     1.0  0.53333  0.77778  0.50000  1.0000
  N   N711      1.0  0.54815  0.78519  0.50000  1.0000
  N   N712      1.0  0.53333  0.80000  0.50000  1.0000
  X   X446      1.0  0.54815  0.80741  0.50000  1.0000
  C   C1077     1.0  0.53333  0.82222  0.50000  1.0000
  C   C1078     1.0  0.54815  0.82963  0.50000  1.0000
  X   X447      1.0  0.53333  0.84444  0.50000  1.0000
  N   N713      1.0  0.54815  0.85185  0.50000  1.0000
  N   N714      1.0  0.53333  0.86667  0.50000  1.0000
  C   C1079     1.0  0.54815  0.87407  0.50000  1.0000
  N   N715      1.0  0.53333  0.88889  0.50000  1.0000
  C   C1080     1.0  0.54815  0.89630  0.50000  1.0000
  N   N716      1.0  0.53333  0.91111  0.50000  1.0000
  C   C1081     1.0  0.54815  0.91852  0.50000  1.0000
  X   X448      1.0  0.53333  0.93333  0.50000  1.0000
  N   N717      1.0  0.54815  0.94074  0.50000  1.0000
  C   C1082     1.0  0.53333  0.95556  0.50000  1.0000
  C   C1083     1.0  0.54815  0.96296  0.50000  1.0000
  C   C1084     1.0  0.53333  0.97778  0.50000  1.0000
  C   C1085     1.0  0.54815  0.98519  0.50000  1.0000
  N   N718      1.0  0.55556  0.00000  0.50000  1.0000
  X   X449      1.0  0.57037  0.00741  0.50000  1.0000
  C   C1086     1.0  0.55556  0.02222  0.50000  1.0000
  N   N719      1.0  0.57037  0.02963  0.50000  1.0000
  C   C1087     1.0  0.55556  0.04444  0.50000  1.0000
  C   C1088     1.0  0.57037  0.05185  0.50000  1.0000
  C   C1089     1.0  0.55556  0.06667  0.50000  1.0000
  C   C1090     1.0  0.57037  0.07407  0.50000  1.0000
  C   C1091     1.0  0.55556  0.08889  0.50000  1.0000
  C   C1092     1.0  0.57037  0.09630  0.50000  1.0000
  C   C1093     1.0  0.55556  0.11111  0.50000  1.0000
  C   C1094     1.0  0.57037  0.11852  0.50000  1.0000
  N   N720      1.0  0.55556  0.13333  0.50000  1.0000
  C   C1095     1.0  0.57037  0.14074  0.50000  1.0000
  X   X450      1.0  0.55556  0.15556  0.50000  1.0000
  N   N721      1.0  0.57037  0.16296  0.50000  1.0000
  N   N722      1.0  0.55556  0.17778  0.50000  1.0000
  C   C1096     1.0  0.57037  0.18519  0.50000  1.0000
  X   X451      1.0  0.55556  0.20000  0.50000  1.0000
  N   N723      1.0  0.57037  0.20741  0.50000  1.0000
  C   C1097     1.0  0.55556  0.22222  0.50000  1.0000
  C   C1098     1.0  0.57037  0.22963  0.50000  1.0000
  X   X452      1.0  0.55556  0.24444  0.50000  1.0000
  X   X453      1.0  0.57037  0.25185  0.50000  1.0000
  X   X454      1.0  0.55556  0.26667  0.50000  1.0000
  X   X455      1.0  0.57037  0.27407  0.50000  1.0000
  C   C1099     1.0  0.55556  0.28889  0.50000  1.0000
  C   C1100     1.0  0.57037  0.29630  0.50000  1.0000
  X   X456      1.0  0.55556  0.31111  0.50000  1.0000
  N   N724      1.0  0.57037  0.31852  0.50000  1.0000
  N   N725      1.0  0.55556  0.33333  0.50000  1.0000
  C   C1101     1.0  0.57037  0.34074  0.50000  1.0000
  N   N726      1.0  0.55556  0.35556  0.50000  1.0000
  C   C1102     1.0  0.57037  0.36296  0.50000  1.0000
  N   N727      1.0  0.55556  0.37778  0.50000  1.0000
  X   X457      1.0  0.57037  0.38519  0.50000  1.0000
  N   N728      1.0  0.55556  0.40000  0.50000  1.0000
  N   N729      1.0  0.57037  0.40741  0.50000  1.0000
  X   X458      1.0  0.55556  0.42222  0.50000  1.0000
  N   N730      1.0  0.57037  0.42963  0.50000  1.0000
  X   X459      1.0  0.55556  0.44444  0.50000  1.0000
  N   N731      1.0  0.57037  0.45185  0.50000  1.0000
  N   N732      1.0  0.55556  0.46667  0.50000  1.0000
  C   C1103     1.0  0.57037  0.47407  0.50000  1.0000
  N   N733      1.0  0.55556  0.48889  0.50000  1.0000
  C   C1104     1.0  0.57037  0.49630  0.50000  1.0000
  X   X460      1.0  0.55556  0.51111  0.50000  1.0000
  N   N734      1.0  0.57037  0.51852  0.50000  1.0000
  C   C1105     1.0  0.55556  0.53333  0.50000  1.0000
  C   C1106     1.0  0.57037  0.54074  0.50000  1.0000
  N   N735      1.0  0.55556  0.55556  0.50000  1.0000
  X   X461      1.0  0.57037  0.56296  0.50000  1.0000
  X   X462      1.0  0.55556  0.57778  0.50000  1.0000
  N   N736      1.0  0.57037  0.58519  0.50000  1.0000
  N   N737      1.0  0.55556  0.60000  0.50000  1.0000
  C   C1107     1.0  0.57037  0.60741  0.50000  1.0000
  C   C1108     1.0  0.55556  0.62222  0.50000  1.0000
  C   C1109     1.0  0.57037  0.62963  0.50000  1.0000
  X   X463      1.0  0.55556  0.64444  0.50000  1.0000
  X   X464      1.0  0.57037  0.65185  0.50000  1.0000
  C   C1110     1.0  0.55556  0.66667  0.50000  1.0000
  N   N738      1.0  0.57037  0.67407  0.50000  1.0000
  N   N739      1.0  0.55556  0.68889  0.50000  1.0000
  X   X465      1.0  0.57037  0.69630  0.50000  1.0000
  N   N740      1.0  0.55556  0.71111  0.50000  1.0000
  X   X466      1.0  0.57037  0.71852  0.50000  1.0000
  C   C1111     1.0  0.55556  0.73333  0.50000  1.0000
  N   N741      1.0  0.57037  0.74074  0.50000  1.0000
  C   C1112     1.0  0.55556  0.75556  0.50000  1.0000
  N   N742      1.0  0.57037  0.76296  0.50000  1.0000
  C   C1113     1.0  0.55556  0.77778  0.50000  1.0000
  C   C1114     1.0  0.57037  0.78519  0.50000  1.0000
  X   X467      1.0  0.55556  0.80000  0.50000  1.0000
  N   N743      1.0  0.57037  0.80741  0.50000  1.0000
  N   N744      1.0  0.55556  0.82222  0.50000  1.0000
  N   N745      1.0  0.57037  0.82963  0.50000  1.0000
  C   C1115     1.0  0.55556  0.84444  0.50000  1.0000
  N   N746      1.0  0.57037  0.85185  0.50000  1.0000
  C   C1116     1.0  0.55556  0.86667  0.50000  1.0000
  N   N747      1.0  0.57037  0.87407  0.50000  1.0000
  C   C1117     1.0  0.55556  0.88889  0.50000  1.0000
  N   N748      1.0  0.57037  0.89630  0.50000  1.0000
  C   C1118     1.0  0.55556  0.91111  0.50000  1.0000
  C   C1119     1.0  0.57037  0.91852  0.50000  1.0000
  C   C1120     1.0  0.55556  0.93333  0.50000  1.0000
  C   C1121     1.0  0.57037  0.94074  0.50000  1.0000
  C   C1122     1.0  0.55556  0.95556  0.50000  1.0000
  C   C1123     1.0  0.57037  0.96296  0.50000  1.0000
  C   C1124     1.0  0.55556  0.97778  0.50000  1.0000
  C   C1125     1.0  0.57037  0.98519  0.50000  1.0000
  N   N749      1.0  0.57778  0.00000  0.50000  1.0000
  C   C1126     1.0  0.59259  0.00741  0.50000  1.0000
  X   X468      1.0  0.57778  0.02222  0.50000  1.0000
  N   N750      1.0  0.59259  0.02963  0.50000  1.0000
  C   C1127     1.0  0.57778  0.04444  0.50000  1.0000
  C   C1128     1.0  0.59259  0.05185  0.50000  1.0000
  C   C1129     1.0  0.57778  0.06667  0.50000  1.0000
  N   N751      1.0  0.59259  0.07407  0.50000  1.0000
  C   C1130     1.0  0.57778  0.08889  0.50000  1.0000
  N   N752      1.0  0.59259  0.09630  0.50000  1.0000
  C   C1131     1.0  0.57778  0.11111  0.50000  1.0000
  C   C1132     1.0  0.59259  0.11852  0.50000  1.0000
  C   C1133     1.0  0.57778  0.13333  0.50000  1.0000
  C   C1134     1.0  0.59259  0.14074  0.50000  1.0000
  C   C1135     1.0  0.57778  0.15556  0.50000  1.0000
  C   C1136     1.0  0.59259  0.16296  0.50000  1.0000
  C   C1137     1.0  0.57778  0.17778  0.50000  1.0000
  C   C1138     1.0  0.59259  0.18519  0.50000  1.0000
  C   C1139     1.0  0.57778  0.20000  0.50000  1.0000
  C   C1140     1.0  0.59259  0.20741  0.50000  1.0000
  C   C1141     1.0  0.57778  0.22222  0.50000  1.0000
  N   N753      1.0  0.59259  0.22963  0.50000  1.0000
  N   N754      1.0  0.57778  0.24444  0.50000  1.0000
  X   X469      1.0  0.59259  0.25185  0.50000  1.0000
  N   N755      1.0  0.57778  0.26667  0.50000  1.0000
  C   C1142     1.0  0.59259  0.27407  0.50000  1.0000
  N   N756      1.0  0.57778  0.28889  0.50000  1.0000
  C   C1143     1.0  0.59259  0.29630  0.50000  1.0000
  C   C1144     1.0  0.57778  0.31111  0.50000  1.0000
  C   C1145     1.0  0.59259  0.31852  0.50000  1.0000
  C   C1146     1.0  0.57778  0.33333  0.50000  1.0000
  C   C1147     1.0  0.59259  0.34074  0.50000  1.0000
  C   C1148     1.0  0.57778  0.35556  0.50000  1.0000
  C   C1149     1.0  0.59259  0.36296  0.50000  1.0000
  N   N757      1.0  0.57778  0.37778  0.50000  1.0000
  C   C1150     1.0  0.59259  0.38519  0.50000  1.0000
  X   X470      1.0  0.57778  0.40000  0.50000  1.0000
  N   N758      1.0  0.59259  0.40741  0.50000  1.0000
  C   C1151     1.0  0.57778  0.42222  0.50000  1.0000
  C   C1152     1.0  0.59259  0.42963  0.50000  1.0000
  C   C1153     1.0  0.57778  0.44444  0.50000  1.0000
  N   N759      1.0  0.59259  0.45185  0.50000  1.0000
  N   N760      1.0  0.57778  0.46667  0.50000  1.0000
  X   X471      1.0  0.59259  0.47407  0.50000  1.0000
  C   C1154     1.0  0.57778  0.48889  0.50000  1.0000
  N   N761      1.0  0.59259  0.49630  0.50000  1.0000
  C   C1155     1.0  0.57778  0.51111  0.50000  1.0000
  N   N762      1.0  0.59259  0.51852  0.50000  1.0000
  N   N763      1.0  0.57778  0.53333  0.50000  1.0000
  X   X472      1.0  0.59259  0.54074  0.50000  1.0000
  N   N764      1.0  0.57778  0.55556  0.50000  1.0000
  X   X473      1.0  0.59259  0.56296  0.50000  1.0000
  X   X474      1.0  0.57778  0.57778  0.50000  1.0000
  N   N765      1.0  0.59259  0.58519  0.50000  1.0000
  C   C1156     1.0  0.57778  0.60000  0.50000  1.0000
  N   N766      1.0  0.59259  0.60741  0.50000  1.0000
  C   C1157     1.0  0.57778  0.62222  0.50000  1.0000
  N   N767      1.0  0.59259  0.62963  0.50000  1.0000
  N   N768      1.0  0.57778  0.64444  0.50000  1.0000
  C   C1158     1.0  0.59259  0.65185  0.50000  1.0000
  N   N769      1.0  0.57778  0.66667  0.50000  1.0000
  C   C1159     1.0  0.59259  0.67407  0.50000  1.0000
  X   X475      1.0  0.57778  0.68889  0.50000  1.0000
  N   N770      1.0  0.59259  0.69630  0.50000  1.0000
  N   N771      1.0  0.57778  0.71111  0.50000  1.0000
  C   C1160     1.0  0.59259  0.71852  0.50000  1.0000
  X   X476      1.0  0.57778  0.73333  0.50000  1.0000
  N   N772      1.0  0.59259  0.74074  0.50000  1.0000
  X   X477      1.0  0.57778  0.75556  0.50000  1.0000
  X   X478      1.0  0.59259  0.76296  0.50000  1.0000
  C   C1161     1.0  0.57778  0.77778  0.50000  1.0000
  C   C1162     1.0  0.59259  0.78519  0.50000  1.0000
  C   C1163     1.0  0.57778  0.80000  0.50000  1.0000
  C   C1164     1.0  0.59259  0.80741  0.50000  1.0000
  C   C1165     1.0  0.57778  0.82222  0.50000  1.0000
  C   C1166     1.0  0.59259  0.82963  0.50000  1.0000
  X   X479      1.0  0.57778  0.84444  0.50000  1.0000
  X   X480      1.0  0.59259  0.85185  0.50000  1.0000
  C   C1167     1.0  0.57778  0.86667  0.50000  1.0000
  C   C1168     1.0  0.59259  0.87407  0.50000  1.0000
  X   X481      1.0  0.57778  0.88889  0.50000  1.0000
  X   X482      1.0  0.59259  0.89630  0.50000  1.0000
  C   C1169     1.0  0.57778  0.91111  0.50000  1.0000
  C   C1170     1.0  0.59259  0.91852  0.50000  1.0000
  C   C1171     1.0  0.57778  0.93333  0.50000  1.0000
  C   C1172     1.0  0.59259  0.94074  0.50000  1.0000
  C   C1173     1.0  0.57778  0.95556  0.50000  1.0000
  C   C1174     1.0  0.59259  0.96296  0.50000  1.0000
  C   C1175     1.0  0.57778  0.97778  0.50000  1.0000
  C   C1176     1.0  0.59259  0.98519  0.50000  1.0000
  C   C1177     1.0  0.60000  0.00000  0.50000  1.0000
  C   C1178     1.0  0.61481  0.00741  0.50000  1.0000
  C   C1179     1.0  0.60000  0.02222  0.50000  1.0000
  C   C1180     1.0  0.61481  0.02963  0.50000  1.0000
  C   C1181     1.0  0.60000  0.04444  0.50000  1.0000
  C   C1182     1.0  0.61481  0.05185  0.50000  1.0000
  C   C1183     1.0  0.60000  0.06667  0.50000  1.0000
  C   C1184     1.0  0.61481  0.07407  0.50000  1.0000
  X   X483      1.0  0.60000  0.08889  0.50000  1.0000
  X   X484      1.0  0.61481  0.09630  0.50000  1.0000
  C   C1185     1.0  0.60000  0.11111  0.50000  1.0000
  C   C1186     1.0  0.61481  0.11852  0.50000  1.0000
  C   C1187     1.0  0.60000  0.13333  0.50000  1.0000
  C   C1188     1.0  0.61481  0.14074  0.50000  1.0000
  C   C1189     1.0  0.60000  0.15556  0.50000  1.0000
  C   C1190     1.0  0.61481  0.16296  0.50000  1.0000
  N   N773      1.0  0.60000  0.17778  0.50000  1.0000
  X   X485      1.0  0.61481  0.18519  0.50000  1.0000
  C   C1191     1.0  0.60000  0.20000  0.50000  1.0000
  N   N774      1.0  0.61481  0.20741  0.50000  1.0000
  C   C1192     1.0  0.60000  0.22222  0.50000  1.0000
  C   C1193     1.0  0.61481  0.22963  0.50000  1.0000
  X   X486      1.0  0.60000  0.24444  0.50000  1.0000
  N   N775      1.0  0.61481  0.25185  0.50000  1.0000
  N   N776      1.0  0.60000  0.26667  0.50000  1.0000
  X   X487      1.0  0.61481  0.27407  0.50000  1.0000
  N   N777      1.0  0.60000  0.28889  0.50000  1.0000
  X   X488      1.0  0.61481  0.29630  0.50000  1.0000
  C   C1194     1.0  0.60000  0.31111  0.50000  1.0000
  N   N778      1.0  0.61481  0.31852  0.50000  1.0000
  C   C1195     1.0  0.60000  0.33333  0.50000  1.0000
  C   C1196     1.0  0.61481  0.34074  0.50000  1.0000
  C   C1197     1.0  0.60000  0.35556  0.50000  1.0000
  C   C1198     1.0  0.61481  0.36296  0.50000  1.0000
  C   C1199     1.0  0.60000  0.37778  0.50000  1.0000
  C   C1200     1.0  0.61481  0.38519  0.50000  1.0000
  C   C1201     1.0  0.60000  0.40000  0.50000  1.0000
  N   N779      1.0  0.61481  0.40741  0.50000  1.0000
  C   C1202     1.0  0.60000  0.42222  0.50000  1.0000
  N   N780      1.0  0.61481  0.42963  0.50000  1.0000
  C   C1203     1.0  0.60000  0.44444  0.50000  1.0000
  C   C1204     1.0  0.61481  0.45185  0.50000  1.0000
  X   X489      1.0  0.60000  0.46667  0.50000  1.0000
  N   N781      1.0  0.61481  0.47407  0.50000  1.0000
  N   N782      1.0  0.60000  0.48889  0.50000  1.0000
  C   C1205     1.0  0.61481  0.49630  0.50000  1.0000
  X   X490      1.0  0.60000  0.51111  0.50000  1.0000
  X   X491      1.0  0.61481  0.51852  0.50000  1.0000
  X   X492      1.0  0.60000  0.53333  0.50000  1.0000
  N   N783      1.0  0.61481  0.54074  0.50000  1.0000
  N   N784      1.0  0.60000  0.55556  0.50000  1.0000
  X   X493      1.0  0.61481  0.56296  0.50000  1.0000
  X   X494      1.0  0.60000  0.57778  0.50000  1.0000
  N   N785      1.0  0.61481  0.58519  0.50000  1.0000
  X   X495      1.0  0.60000  0.60000  0.50000  1.0000
  X   X496      1.0  0.61481  0.60741  0.50000  1.0000
  X   X497      1.0  0.60000  0.62222  0.50000  1.0000
  X   X498      1.0  0.61481  0.62963  0.50000  1.0000
  C   C1206     1.0  0.60000  0.64444  0.50000  1.0000
  C   C1207     1.0  0.61481  0.65185  0.50000  1.0000
  C   C1208     1.0  0.60000  0.66667  0.50000  1.0000
  C   C1209     1.0  0.61481  0.67407  0.50000  1.0000
  C   C1210     1.0  0.60000  0.68889  0.50000  1.0000
  C   C1211     1.0  0.61481  0.69630  0.50000  1.0000
  C   C1212     1.0  0.60000  0.71111  0.50000  1.0000
  C   C1213     1.0  0.61481  0.71852  0.50000  1.0000
  C   C1214     1.0  0.60000  0.73333  0.50000  1.0000
  C   C1215     1.0  0.61481  0.74074  0.50000  1.0000
  N   N786      1.0  0.60000  0.75556  0.50000  1.0000
  C   C1216     1.0  0.61481  0.76296  0.50000  1.0000
  N   N787      1.0  0.60000  0.77778  0.50000  1.0000
  C   C1217     1.0  0.61481  0.78519  0.50000  1.0000
  C   C1218     1.0  0.60000  0.80000  0.50000  1.0000
  C   C1219     1.0  0.61481  0.80741  0.50000  1.0000
  C   C1220     1.0  0.60000  0.82222  0.50000  1.0000
  C   C1221     1.0  0.61481  0.82963  0.50000  1.0000
  N   N788      1.0  0.60000  0.84444  0.50000  1.0000
  C   C1222     1.0  0.61481  0.85185  0.50000  1.0000
  N   N789      1.0  0.60000  0.86667  0.50000  1.0000
  C   C1223     1.0  0.61481  0.87407  0.50000  1.0000
  N   N790      1.0  0.60000  0.88889  0.50000  1.0000
  C   C1224     1.0  0.61481  0.89630  0.50000  1.0000
  N   N791      1.0  0.60000  0.91111  0.50000  1.0000
  C   C1225     1.0  0.61481  0.91852  0.50000  1.0000
  C   C1226     1.0  0.60000  0.93333  0.50000  1.0000
  C   C1227     1.0  0.61481  0.94074  0.50000  1.0000
  C   C1228     1.0  0.60000  0.95556  0.50000  1.0000
  C   C1229     1.0  0.61481  0.96296  0.50000  1.0000
  C   C1230     1.0  0.60000  0.97778  0.50000  1.0000
  C   C1231     1.0  0.61481  0.98519  0.50000  1.0000
  C   C1232     1.0  0.62222  0.00000  0.50000  1.0000
  C   C1233     1.0  0.63704  0.00741  0.50000  1.0000
  C   C1234     1.0  0.62222  0.02222  0.50000  1.0000
  C   C1235     1.0  0.63704  0.02963  0.50000  1.0000
  C   C1236     1.0  0.62222  0.04444  0.50000  1.0000
  C   C1237     1.0  0.63704  0.05185  0.50000  1.0000
  C   C1238     1.0  0.62222  0.06667  0.50000  1.0000
  C   C1239     1.0  0.63704  0.07407  0.50000  1.0000
  N   N792      1.0  0.62222  0.08889  0.50000  1.0000
  N   N793      1.0  0.63704  0.09630  0.50000  1.0000
  N   N794      1.0  0.62222  0.11111  0.50000  1.0000
  N   N795      1.0  0.63704  0.11852  0.50000  1.0000
  C   C1240     1.0  0.62222  0.13333  0.50000  1.0000
  C   C1241     1.0  0.63704  0.14074  0.50000  1.0000
  C   C1242     1.0  0.62222  0.15556  0.50000  1.0000
  C   C1243     1.0  0.63704  0.16296  0.50000  1.0000
  N   N796      1.0  0.62222  0.17778  0.50000  1.0000
  C   C1244     1.0  0.63704  0.18519  0.50000  1.0000
  X   X499      1.0  0.62222  0.20000  0.50000  1.0000
  N   N797      1.0  0.63704  0.20741  0.50000  1.0000
  N   N798      1.0  0.62222  0.22222  0.50000  1.0000
  X   X500      1.0  0.63704  0.22963  0.50000  1.0000
  C   C1245     1.0  0.62222  0.24444  0.50000  1.0000
  N   N799      1.0  0.63704  0.25185  0.50000  1.0000
  X   X501      1.0  0.62222  0.26667  0.50000  1.0000
  N   N800      1.0  0.63704  0.27407  0.50000  1.0000
  N   N801      1.0  0.62222  0.28889  0.50000  1.0000
  C   C1246     1.0  0.63704  0.29630  0.50000  1.0000
  X   X502      1.0  0.62222  0.31111  0.50000  1.0000
  N   N802      1.0  0.63704  0.31852  0.50000  1.0000
  N   N803      1.0  0.62222  0.33333  0.50000  1.0000
  X   X503      1.0  0.63704  0.34074  0.50000  1.0000
  C   C1247     1.0  0.62222  0.35556  0.50000  1.0000
  N   N804      1.0  0.63704  0.36296  0.50000  1.0000
  C   C1248     1.0  0.62222  0.37778  0.50000  1.0000
  C   C1249     1.0  0.63704  0.38519  0.50000  1.0000
  C   C1250     1.0  0.62222  0.40000  0.50000  1.0000
  C   C1251     1.0  0.63704  0.40741  0.50000  1.0000
  X   X504      1.0  0.62222  0.42222  0.50000  1.0000
  X   X505      1.0  0.63704  0.42963  0.50000  1.0000
  C   C1252     1.0  0.62222  0.44444  0.50000  1.0000
  C   C1253     1.0  0.63704  0.45185  0.50000  1.0000
  C   C1254     1.0  0.62222  0.46667  0.50000  1.0000
  C   C1255     1.0  0.63704  0.47407  0.50000  1.0000
  C   C1256     1.0  0.62222  0.48889  0.50000  1.0000
  C   C1257     1.0  0.63704  0.49630  0.50000  1.0000
  N   N805      1.0  0.62222  0.51111  0.50000  1.0000
  C   C1258     1.0  0.63704  0.51852  0.50000  1.0000
  N   N806      1.0  0.62222  0.53333  0.50000  1.0000
  N   N807      1.0  0.63704  0.54074  0.50000  1.0000
  N   N808      1.0  0.62222  0.55556  0.50000  1.0000
  X   X506      1.0  0.63704  0.56296  0.50000  1.0000
  X   X507      1.0  0.62222  0.57778  0.50000  1.0000
  N   N809      1.0  0.63704  0.58519  0.50000  1.0000
  N   N810      1.0  0.62222  0.60000  0.50000  1.0000
  X   X508      1.0  0.63704  0.60741  0.50000  1.0000
  N   N811      1.0  0.62222  0.62222  0.50000  1.0000
  X   X509      1.0  0.63704  0.62963  0.50000  1.0000
  N   N812      1.0  0.62222  0.64444  0.50000  1.0000
  N   N813      1.0  0.63704  0.65185  0.50000  1.0000
  C   C1259     1.0  0.62222  0.66667  0.50000  1.0000
  C   C1260     1.0  0.63704  0.67407  0.50000  1.0000
  C   C1261     1.0  0.62222  0.68889  0.50000  1.0000
  C   C1262     1.0  0.63704  0.69630  0.50000  1.0000
  C   C1263     1.0  0.62222  0.71111  0.50000  1.0000
  C   C1264     1.0  0.63704  0.71852  0.50000  1.0000
  N   N814      1.0  0.62222  0.73333  0.50000  1.0000
  X   X510      1.0  0.63704  0.74074  0.50000  1.0000
  C   C1265     1.0  0.62222  0.75556  0.50000  1.0000
  N   N815      1.0  0.63704  0.76296  0.50000  1.0000
  C   C1266     1.0  0.62222  0.77778  0.50000  1.0000
  C   C1267     1.0  0.63704  0.78519  0.50000  1.0000
  C   C1268     1.0  0.62222  0.80000  0.50000  1.0000
  C   C1269     1.0  0.63704  0.80741  0.50000  1.0000
  C   C1270     1.0  0.62222  0.82222  0.50000  1.0000
  C   C1271     1.0  0.63704  0.82963  0.50000  1.0000
  C   C1272     1.0  0.62222  0.84444  0.50000  1.0000
  C   C1273     1.0  0.63704  0.85185  0.50000  1.0000
  C   C1274     1.0  0.62222  0.86667  0.50000  1.0000
  C   C1275     1.0  0.63704  0.87407  0.50000  1.0000
  C   C1276     1.0  0.62222  0.88889  0.50000  1.0000
  N   N816      1.0  0.63704  0.89630  0.50000  1.0000
  C   C1277     1.0  0.62222  0.91111  0.50000  1.0000
  N   N817      1.0  0.63704  0.91852  0.50000  1.0000
  C   C1278     1.0  0.62222  0.93333  0.50000  1.0000
  C   C1279     1.0  0.63704  0.94074  0.50000  1.0000
  C   C1280     1.0  0.62222  0.95556  0.50000  1.0000
  C   C1281     1.0  0.63704  0.96296  0.50000  1.0000
  C   C1282     1.0  0.62222  0.97778  0.50000  1.0000
  C   C1283     1.0  0.63704  0.98519  0.50000  1.0000
  C   C1284     1.0  0.64444  0.00000  0.50000  1.0000
  C   C1285     1.0  0.65926  0.00741  0.50000  1.0000
  N   N818      1.0  0.64444  0.02222  0.50000  1.0000
  X   X511      1.0  0.65926  0.02963  0.50000  1.0000
  C   C1286     1.0  0.64444  0.04444  0.50000  1.0000
  N   N819      1.0  0.65926  0.05185  0.50000  1.0000
  C   C1287     1.0  0.64444  0.06667  0.50000  1.0000
  C   C1288     1.0  0.65926  0.07407  0.50000  1.0000
  C   C1289     1.0  0.64444  0.08889  0.50000  1.0000
  C   C1290     1.0  0.65926  0.09630  0.50000  1.0000
  X   X512      1.0  0.64444  0.11111  0.50000  1.0000
  X   X513      1.0  0.65926  0.11852  0.50000  1.0000
  C   C1291     1.0  0.64444  0.13333  0.50000  1.0000
  N   N820      1.0  0.65926  0.14074  0.50000  1.0000
  C   C1292     1.0  0.64444  0.15556  0.50000  1.0000
  N   N821      1.0  0.65926  0.16296  0.50000  1.0000
  C   C1293     1.0  0.64444  0.17778  0.50000  1.0000
  N   N822      1.0  0.65926  0.18519  0.50000  1.0000
  C   C1294     1.0  0.64444  0.20000  0.50000  1.0000
  N   N823      1.0  0.65926  0.20741  0.50000  1.0000
  N   N824      1.0  0.64444  0.22222  0.50000  1.0000
  N   N825      1.0  0.65926  0.22963  0.50000  1.0000
  X   X514      1.0  0.64444  0.24444  0.50000  1.0000
  N   N826      1.0  0.65926  0.25185  0.50000  1.0000
  X   X515      1.0  0.64444  0.26667  0.50000  1.0000
  X   X516      1.0  0.65926  0.27407  0.50000  1.0000
  C   C1295     1.0  0.64444  0.28889  0.50000  1.0000
  C   C1296     1.0  0.65926  0.29630  0.50000  1.0000
  C   C1297     1.0  0.64444  0.31111  0.50000  1.0000
  N   N827      1.0  0.65926  0.31852  0.50000  1.0000
  N   N828      1.0  0.64444  0.33333  0.50000  1.0000
  X   X517      1.0  0.65926  0.34074  0.50000  1.0000
  X   X518      1.0  0.64444  0.35556  0.50000  1.0000
  N   N829      1.0  0.65926  0.36296  0.50000  1.0000
  N   N830      1.0  0.64444  0.37778  0.50000  1.0000
  X   X519      1.0  0.65926  0.38519  0.50000  1.0000
  C   C1298     1.0  0.64444  0.40000  0.50000  1.0000
  N   N831      1.0  0.65926  0.40741  0.50000  1.0000
  N   N832      1.0  0.64444  0.42222  0.50000  1.0000
  C   C1299     1.0  0.65926  0.42963  0.50000  1.0000
  N   N833      1.0  0.64444  0.44444  0.50000  1.0000
  C   C1300     1.0  0.65926  0.45185  0.50000  1.0000
  C   C1301     1.0  0.64444  0.46667  0.50000  1.0000
  N   N834      1.0  0.65926  0.47407  0.50000  1.0000
  N   N835      1.0  0.64444  0.48889  0.50000  1.0000
  X   X520      1.0  0.65926  0.49630  0.50000  1.0000
  C   C1302     1.0  0.64444  0.51111  0.50000  1.0000
  C   C1303     1.0  0.65926  0.51852  0.50000  1.0000
  N   N836      1.0  0.64444  0.53333  0.50000  1.0000
  X   X521      1.0  0.65926  0.54074  0.50000  1.0000
  X   X522      1.0  0.64444  0.55556  0.50000  1.0000
  N   N837      1.0  0.65926  0.56296  0.50000  1.0000
  N   N838      1.0  0.64444  0.57778  0.50000  1.0000
  N   N839      1.0  0.65926  0.58519  0.50000  1.0000
  X   X523      1.0  0.64444  0.60000  0.50000  1.0000
  N   N840      1.0  0.65926  0.60741  0.50000  1.0000
  N   N841      1.0  0.64444  0.62222  0.50000  1.0000
  C   C1304     1.0  0.65926  0.62963  0.50000  1.0000
  X   X524      1.0  0.64444  0.64444  0.50000  1.0000
  N   N842      1.0  0.65926  0.65185  0.50000  1.0000
  N   N843      1.0  0.64444  0.66667  0.50000  1.0000
  X   X525      1.0  0.65926  0.67407  0.50000  1.0000
  C   C1305     1.0  0.64444  0.68889  0.50000  1.0000
  C   C1306     1.0  0.65926  0.69630  0.50000  1.0000
  C   C1307     1.0  0.64444  0.71111  0.50000  1.0000
  C   C1308     1.0  0.65926  0.71852  0.50000  1.0000
  N   N844      1.0  0.64444  0.73333  0.50000  1.0000
  C   C1309     1.0  0.65926  0.74074  0.50000  1.0000
  X   X526      1.0  0.64444  0.75556  0.50000  1.0000
  N   N845      1.0  0.65926  0.76296  0.50000  1.0000
  C   C1310     1.0  0.64444  0.77778  0.50000  1.0000
  C   C1311     1.0  0.65926  0.78519  0.50000  1.0000
  C   C1312     1.0  0.64444  0.80000  0.50000  1.0000
  C   C1313     1.0  0.65926  0.80741  0.50000  1.0000
  N   N846      1.0  0.64444  0.82222  0.50000  1.0000
  X   X527      1.0  0.65926  0.82963  0.50000  1.0000
  C   C1314     1.0  0.64444  0.84444  0.50000  1.0000
  N   N847      1.0  0.65926  0.85185  0.50000  1.0000
  C   C1315     1.0  0.64444  0.86667  0.50000  1.0000
  N   N848      1.0  0.65926  0.87407  0.50000  1.0000
  C   C1316     1.0  0.64444  0.88889  0.50000  1.0000
  N   N849      1.0  0.65926  0.89630  0.50000  1.0000
  X   X528      1.0  0.64444  0.91111  0.50000  1.0000
  X   X529      1.0  0.65926  0.91852  0.50000  1.0000
  C   C1317     1.0  0.64444  0.93333  0.50000  1.0000
  C   C1318     1.0  0.65926  0.94074  0.50000  1.0000
  C   C1319     1.0  0.64444  0.95556  0.50000  1.0000
  C   C1320     1.0  0.65926  0.96296  0.50000  1.0000
  C   C1321     1.0  0.64444  0.97778  0.50000  1.0000
  C   C1322     1.0  0.65926  0.98519  0.50000  1.0000
  C   C1323     1.0  0.66667  0.00000  0.50000  1.0000
  C   C1324     1.0  0.68148  0.00741  0.50000  1.0000
  N   N850      1.0  0.66667  0.02222  0.50000  1.0000
  X   X530      1.0  0.68148  0.02963  0.50000  1.0000
  X   X531      1.0  0.66667  0.04444  0.50000  1.0000
  N   N851      1.0  0.68148  0.05185  0.50000  1.0000
  C   C1325     1.0  0.66667  0.06667  0.50000  1.0000
  C   C1326     1.0  0.68148  0.07407  0.50000  1.0000
  C   C1327     1.0  0.66667  0.08889  0.50000  1.0000
  C   C1328     1.0  0.68148  0.09630  0.50000  1.0000
  N   N852      1.0  0.66667  0.11111  0.50000  1.0000
  C   C1329     1.0  0.68148  0.11852  0.50000  1.0000
  N   N853      1.0  0.66667  0.13333  0.50000  1.0000
  C   C1330     1.0  0.68148  0.14074  0.50000  1.0000
  X   X532      1.0  0.66667  0.15556  0.50000  1.0000
  X   X533      1.0  0.68148  0.16296  0.50000  1.0000
  X   X534      1.0  0.66667  0.17778  0.50000  1.0000
  X   X535      1.0  0.68148  0.18519  0.50000  1.0000
  C   C1331     1.0  0.66667  0.20000  0.50000  1.0000
  C   C1332     1.0  0.68148  0.20741  0.50000  1.0000
  X   X536      1.0  0.66667  0.22222  0.50000  1.0000
  X   X537      1.0  0.68148  0.22963  0.50000  1.0000
  X   X538      1.0  0.66667  0.24444  0.50000  1.0000
  X   X539      1.0  0.68148  0.25185  0.50000  1.0000
  N   N854      1.0  0.66667  0.26667  0.50000  1.0000
  N   N855      1.0  0.68148  0.27407  0.50000  1.0000
  N   N856      1.0  0.66667  0.28889  0.50000  1.0000
  N   N857      1.0  0.68148  0.29630  0.50000  1.0000
  C   C1333     1.0  0.66667  0.31111  0.50000  1.0000
  N   N858      1.0  0.68148  0.31852  0.50000  1.0000
  X   X540      1.0  0.66667  0.33333  0.50000  1.0000
  N   N859      1.0  0.68148  0.34074  0.50000  1.0000
  N   N860      1.0  0.66667  0.35556  0.50000  1.0000
  C   C1334     1.0  0.68148  0.36296  0.50000  1.0000
  N   N861      1.0  0.66667  0.37778  0.50000  1.0000
  C   C1335     1.0  0.68148  0.38519  0.50000  1.0000
  X   X541      1.0  0.66667  0.40000  0.50000  1.0000
  N   N862      1.0  0.68148  0.40741  0.50000  1.0000
  C   C1336     1.0  0.66667  0.42222  0.50000  1.0000
  C   C1337     1.0  0.68148  0.42963  0.50000  1.0000
  C   C1338     1.0  0.66667  0.44444  0.50000  1.0000
  C   C1339     1.0  0.68148  0.45185  0.50000  1.0000
  C   C1340     1.0  0.66667  0.46667  0.50000  1.0000
  N   N863      1.0  0.68148  0.47407  0.50000  1.0000
  X   X542      1.0  0.66667  0.48889  0.50000  1.0000
  N   N864      1.0  0.68148  0.49630  0.50000  1.0000
  N   N865      1.0  0.66667  0.51111  0.50000  1.0000
  C   C1341     1.0  0.68148  0.51852  0.50000  1.0000
  N   N866      1.0  0.66667  0.53333  0.50000  1.0000
  C   C1342     1.0  0.68148  0.54074  0.50000  1.0000
  X   X543      1.0  0.66667  0.55556  0.50000  1.0000
  N   N867      1.0  0.68148  0.56296  0.50000  1.0000
  X   X544      1.0  0.66667  0.57778  0.50000  1.0000
  X   X545      1.0  0.68148  0.58519  0.50000  1.0000
  C   C1343     1.0  0.66667  0.60000  0.50000  1.0000
  C   C1344     1.0  0.68148  0.60741  0.50000  1.0000
  C   C1345     1.0  0.66667  0.62222  0.50000  1.0000
  C   C1346     1.0  0.68148  0.62963  0.50000  1.0000
  C   C1347     1.0  0.66667  0.64444  0.50000  1.0000
  N   N868      1.0  0.68148  0.65185  0.50000  1.0000
  X   X546      1.0  0.66667  0.66667  0.50000  1.0000
  N   N869      1.0  0.68148  0.67407  0.50000  1.0000
  N   N870      1.0  0.66667  0.68889  0.50000  1.0000
  N   N871      1.0  0.68148  0.69630  0.50000  1.0000
  C   C1348     1.0  0.66667  0.71111  0.50000  1.0000
  C   C1349     1.0  0.68148  0.71852  0.50000  1.0000
  C   C1350     1.0  0.66667  0.73333  0.50000  1.0000
  N   N872      1.0  0.68148  0.74074  0.50000  1.0000
  N   N873      1.0  0.66667  0.75556  0.50000  1.0000
  X   X547      1.0  0.68148  0.76296  0.50000  1.0000
  C   C1351     1.0  0.66667  0.77778  0.50000  1.0000
  C   C1352     1.0  0.68148  0.78519  0.50000  1.0000
  C   C1353     1.0  0.66667  0.80000  0.50000  1.0000
  C   C1354     1.0  0.68148  0.80741  0.50000  1.0000
  N   N874      1.0  0.66667  0.82222  0.50000  1.0000
  C   C1355     1.0  0.68148  0.82963  0.50000  1.0000
  X   X548      1.0  0.66667  0.84444  0.50000  1.0000
  N   N875      1.0  0.68148  0.85185  0.50000  1.0000
  C   C1356     1.0  0.66667  0.86667  0.50000  1.0000
  C   C1357     1.0  0.68148  0.87407  0.50000  1.0000
  X   X549      1.0  0.66667  0.88889  0.50000  1.0000
  X   X550      1.0  0.68148  0.89630  0.50000  1.0000
  N   N876      1.0  0.66667  0.91111  0.50000  1.0000
  C   C1358     1.0  0.68148  0.91852  0.50000  1.0000
  N   N877      1.0  0.66667  0.93333  0.50000  1.0000
  X   X551      1.0  0.68148  0.94074  0.50000  1.0000
  C   C1359     1.0  0.66667  0.95556  0.50000  1.0000
  N   N878      1.0  0.68148  0.96296  0.50000  1.0000
  C   C1360     1.0  0.66667  0.97778  0.50000  1.0000
  C   C1361     1.0  0.68148  0.98519  0.50000  1.0000
  C   C1362     1.0  0.68889  0.00000  0.50000  1.0000
  N   N879      1.0  0.70370  0.00741  0.50000  1.0000
  N   N880      1.0  0.68889  0.02222  0.50000  1.0000
  N   N881      1.0  0.70370  0.02963  0.50000  1.0000
  X   X552      1.0  0.68889  0.04444  0.50000  1.0000
  N   N882      1.0  0.70370  0.05185  0.50000  1.0000
  C   C1363     1.0  0.68889  0.06667  0.50000  1.0000
  C   C1364     1.0  0.70370  0.07407  0.50000  1.0000
  N   N883      1.0  0.68889  0.08889  0.50000  1.0000
  X   X553      1.0  0.70370  0.09630  0.50000  1.0000
  C   C1365     1.0  0.68889  0.11111  0.50000  1.0000
  N   N884      1.0  0.70370  0.11852  0.50000  1.0000
  C   C1366     1.0  0.68889  0.13333  0.50000  1.0000
  C   C1367     1.0  0.70370  0.14074  0.50000  1.0000
  N   N885      1.0  0.68889  0.15556  0.50000  1.0000
  C   C1368     1.0  0.70370  0.16296  0.50000  1.0000
  N   N886      1.0  0.68889  0.17778  0.50000  1.0000
  C   C1369     1.0  0.70370  0.18519  0.50000  1.0000
  N   N887      1.0  0.68889  0.20000  0.50000  1.0000
  X   X554      1.0  0.70370  0.20741  0.50000  1.0000
  N   N888      1.0  0.68889  0.22222  0.50000  1.0000
  N   N889      1.0  0.70370  0.22963  0.50000  1.0000
  N   N890      1.0  0.68889  0.24444  0.50000  1.0000
  C   C1370     1.0  0.70370  0.25185  0.50000  1.0000
  N   N891      1.0  0.68889  0.26667  0.50000  1.0000
  C   C1371     1.0  0.70370  0.27407  0.50000  1.0000
  X   X555      1.0  0.68889  0.28889  0.50000  1.0000
  X   X556      1.0  0.70370  0.29630  0.50000  1.0000
  C   C1372     1.0  0.68889  0.31111  0.50000  1.0000
  C   C1373     1.0  0.70370  0.31852  0.50000  1.0000
  X   X557      1.0  0.68889  0.33333  0.50000  1.0000
  X   X558      1.0  0.70370  0.34074  0.50000  1.0000
  C   C1374     1.0  0.68889  0.35556  0.50000  1.0000
  N   N892      1.0  0.70370  0.36296  0.50000  1.0000
  C   C1375     1.0  0.68889  0.37778  0.50000  1.0000
  N   N893      1.0  0.70370  0.38519  0.50000  1.0000
  C   C1376     1.0  0.68889  0.40000  0.50000  1.0000
  C   C1377     1.0  0.70370  0.40741  0.50000  1.0000
  C   C1378     1.0  0.68889  0.42222  0.50000  1.0000
  C   C1379     1.0  0.70370  0.42963  0.50000  1.0000
  C   C1380     1.0  0.68889  0.44444  0.50000  1.0000
  N   N894      1.0  0.70370  0.45185  0.50000  1.0000
  C   C1381     1.0  0.68889  0.46667  0.50000  1.0000
  N   N895      1.0  0.70370  0.47407  0.50000  1.0000
  X   X559      1.0  0.68889  0.48889  0.50000  1.0000
  X   X560      1.0  0.70370  0.49630  0.50000  1.0000
  C   C1382     1.0  0.68889  0.51111  0.50000  1.0000
  C   C1383     1.0  0.70370  0.51852  0.50000  1.0000
  C   C1384     1.0  0.68889  0.53333  0.50000  1.0000
  N   N896      1.0  0.70370  0.54074  0.50000  1.0000
  C   C1385     1.0  0.68889  0.55556  0.50000  1.0000
  N   N897      1.0  0.70370  0.56296  0.50000  1.0000
  N   N898      1.0  0.68889  0.57778  0.50000  1.0000
  C   C1386     1.0  0.70370  0.58519  0.50000  1.0000
  N   N899      1.0  0.68889  0.60000  0.50000  1.0000
  C   C1387     1.0  0.70370  0.60741  0.50000  1.0000
  C   C1388     1.0  0.68889  0.62222  0.50000  1.0000
  N   N900      1.0  0.70370  0.62963  0.50000  1.0000
  C   C1389     1.0  0.68889  0.64444  0.50000  1.0000
  N   N901      1.0  0.70370  0.65185  0.50000  1.0000
  X   X561      1.0  0.68889  0.66667  0.50000  1.0000
  X   X562      1.0  0.70370  0.67407  0.50000  1.0000
  X   X563      1.0  0.68889  0.68889  0.50000  1.0000
  X   X564      1.0  0.70370  0.69630  0.50000  1.0000
  C   C1390     1.0  0.68889  0.71111  0.50000  1.0000
  C   C1391     1.0  0.70370  0.71852  0.50000  1.0000
  C   C1392     1.0  0.68889  0.73333  0.50000  1.0000
  C   C1393     1.0  0.70370  0.74074  0.50000  1.0000
  X   X565      1.0  0.68889  0.75556  0.50000  1.0000
  N   N902      1.0  0.70370  0.76296  0.50000  1.0000
  N   N903      1.0  0.68889  0.77778  0.50000  1.0000
  C   C1394     1.0  0.70370  0.78519  0.50000  1.0000
  C   C1395     1.0  0.68889  0.80000  0.50000  1.0000
  N   N904      1.0  0.70370  0.80741  0.50000  1.0000
  N   N905      1.0  0.68889  0.82222  0.50000  1.0000
  X   X566      1.0  0.70370  0.82963  0.50000  1.0000
  C   C1396     1.0  0.68889  0.84444  0.50000  1.0000
  N   N906      1.0  0.70370  0.85185  0.50000  1.0000
  C   C1397     1.0  0.68889  0.86667  0.50000  1.0000
  N   N907      1.0  0.70370  0.87407  0.50000  1.0000
  N   N908      1.0  0.68889  0.88889  0.50000  1.0000
  C   C1398     1.0  0.70370  0.89630  0.50000  1.0000
  N   N909      1.0  0.68889  0.91111  0.50000  1.0000
  C   C1399     1.0  0.70370  0.91852  0.50000  1.0000
  N   N910      1.0  0.68889  0.93333  0.50000  1.0000
  C   C1400     1.0  0.70370  0.94074  0.50000  1.0000
  X   X567      1.0  0.68889  0.95556  0.50000  1.0000
  N   N911      1.0  0.70370  0.96296  0.50000  1.0000
  C   C1401     1.0  0.68889  0.97778  0.50000  1.0000
  C   C1402     1.0  0.70370  0.98519  0.50000  1.0000
  C   C1403     1.0  0.71111  0.00000  0.50000  1.0000
  C   C1404     1.0  0.72593  0.00741  0.50000  1.0000
  X   X568      1.0  0.71111  0.02222  0.50000  1.0000
  X   X569      1.0  0.72593  0.02963  0.50000  1.0000
  C   C1405     1.0  0.71111  0.04444  0.50000  1.0000
  C   C1406     1.0  0.72593  0.05185  0.50000  1.0000
  C   C1407     1.0  0.71111  0.06667  0.50000  1.0000
  C   C1408     1.0  0.72593  0.07407  0.50000  1.0000
  N   N912      1.0  0.71111  0.08889  0.50000  1.0000
  X   X570      1.0  0.72593  0.09630  0.50000  1.0000
  X   X571      1.0  0.71111  0.11111  0.50000  1.0000
  N   N913      1.0  0.72593  0.11852  0.50000  1.0000
  C   C1409     1.0  0.71111  0.13333  0.50000  1.0000
  C   C1410     1.0  0.72593  0.14074  0.50000  1.0000
  C   C1411     1.0  0.71111  0.15556  0.50000  1.0000
  C   C1412     1.0  0.72593  0.16296  0.50000  1.0000
  C   C1413     1.0  0.71111  0.17778  0.50000  1.0000
  N   N914      1.0  0.72593  0.18519  0.50000  1.0000
  N   N915      1.0  0.71111  0.20000  0.50000  1.0000
  N   N916      1.0  0.72593  0.20741  0.50000  1.0000
  X   X572      1.0  0.71111  0.22222  0.50000  1.0000
  N   N917      1.0  0.72593  0.22963  0.50000  1.0000
  C   C1414     1.0  0.71111  0.24444  0.50000  1.0000
  C   C1415     1.0  0.72593  0.25185  0.50000  1.0000
  C   C1416     1.0  0.71111  0.26667  0.50000  1.0000
  C   C1417     1.0  0.72593  0.27407  0.50000  1.0000
  N   N918      1.0  0.71111  0.28889  0.50000  1.0000
  C   C1418     1.0  0.72593  0.29630  0.50000  1.0000
  N   N919      1.0  0.71111  0.31111  0.50000  1.0000
  C   C1419     1.0  0.72593  0.31852  0.50000  1.0000
  N   N920      1.0  0.71111  0.33333  0.50000  1.0000
  X   X573      1.0  0.72593  0.34074  0.50000  1.0000
  N   N921      1.0  0.71111  0.35556  0.50000  1.0000
  N   N922      1.0  0.72593  0.36296  0.50000  1.0000
  X   X574      1.0  0.71111  0.37778  0.50000  1.0000
  X   X575      1.0  0.72593  0.38519  0.50000  1.0000
  C   C1420     1.0  0.71111  0.40000  0.50000  1.0000
  N   N923      1.0  0.72593  0.40741  0.50000  1.0000
  C   C1421     1.0  0.71111  0.42222  0.50000  1.0000
  N   N924      1.0  0.72593  0.42963  0.50000  1.0000
  C   C1422     1.0  0.71111  0.44444  0.50000  1.0000
  C   C1423     1.0  0.72593  0.45185  0.50000  1.0000
  X   X576      1.0  0.71111  0.46667  0.50000  1.0000
  X   X577      1.0  0.72593  0.47407  0.50000  1.0000
  N   N925      1.0  0.71111  0.48889  0.50000  1.0000
  X   X578      1.0  0.72593  0.49630  0.50000  1.0000
  N   N926      1.0  0.71111  0.51111  0.50000  1.0000
  N   N927      1.0  0.72593  0.51852  0.50000  1.0000
  C   C1424     1.0  0.71111  0.53333  0.50000  1.0000
  C   C1425     1.0  0.72593  0.54074  0.50000  1.0000
  X   X579      1.0  0.71111  0.55556  0.50000  1.0000
  X   X580      1.0  0.72593  0.56296  0.50000  1.0000
  C   C1426     1.0  0.71111  0.57778  0.50000  1.0000
  C   C1427     1.0  0.72593  0.58519  0.50000  1.0000
  C   C1428     1.0  0.71111  0.60000  0.50000  1.0000
  C   C1429     1.0  0.72593  0.60741  0.50000  1.0000
  C   C1430     1.0  0.71111  0.62222  0.50000  1.0000
  C   C1431     1.0  0.72593  0.62963  0.50000  1.0000
  X   X581      1.0  0.71111  0.64444  0.50000  1.0000
  X   X582      1.0  0.72593  0.65185  0.50000  1.0000
  N   N928      1.0  0.71111  0.66667  0.50000  1.0000
  C   C1432     1.0  0.72593  0.67407  0.50000  1.0000
  N   N929      1.0  0.71111  0.68889  0.50000  1.0000
  C   C1433     1.0  0.72593  0.69630  0.50000  1.0000
  N   N930      1.0  0.71111  0.71111  0.50000  1.0000
  C   C1434     1.0  0.72593  0.71852  0.50000  1.0000
  C   C1435     1.0  0.71111  0.73333  0.50000  1.0000
  C   C1436     1.0  0.72593  0.74074  0.50000  1.0000
  C   C1437     1.0  0.71111  0.75556  0.50000  1.0000
  N   N931      1.0  0.72593  0.76296  0.50000  1.0000
  C   C1438     1.0  0.71111  0.77778  0.50000  1.0000
  N   N932      1.0  0.72593  0.78519  0.50000  1.0000
  N   N933      1.0  0.71111  0.80000  0.50000  1.0000
  X   X583      1.0  0.72593  0.80741  0.50000  1.0000
  X   X584      1.0  0.71111  0.82222  0.50000  1.0000
  N   N934      1.0  0.72593  0.82963  0.50000  1.0000
  N   N935      1.0  0.71111  0.84444  0.50000  1.0000
  C   C1439     1.0  0.72593  0.85185  0.50000  1.0000
  X   X585      1.0  0.71111  0.86667  0.50000  1.0000
  X   X586      1.0  0.72593  0.87407  0.50000  1.0000
  C   C1440     1.0  0.71111  0.88889  0.50000  1.0000
  C   C1441     1.0  0.72593  0.89630  0.50000  1.0000
  C   C1442     1.0  0.71111  0.91111  0.50000  1.0000
  C   C1443     1.0  0.72593  0.91852  0.50000  1.0000
  C   C1444     1.0  0.71111  0.93333  0.50000  1.0000
  C   C1445     1.0  0.72593  0.94074  0.50000  1.0000
  C   C1446     1.0  0.71111  0.95556  0.50000  1.0000
  C   C1447     1.0  0.72593  0.96296  0.50000  1.0000
  C   C1448     1.0  0.71111  0.97778  0.50000  1.0000
  C   C1449     1.0  0.72593  0.98519  0.50000  1.0000
  C   C1450     1.0  0.73333  0.00000  0.50000  1.0000
  C   C1451     1.0  0.74815  0.00741  0.50000  1.0000
  N   N936      1.0  0.73333  0.02222  0.50000  1.0000
  X   X587      1.0  0.74815  0.02963  0.50000  1.0000
  N   N937      1.0  0.73333  0.04444  0.50000  1.0000
  N   N938      1.0  0.74815  0.05185  0.50000  1.0000
  C   C1452     1.0  0.73333  0.06667  0.50000  1.0000
  N   N939      1.0  0.74815  0.07407  0.50000  1.0000
  N   N940      1.0  0.73333  0.08889  0.50000  1.0000
  C   C1453     1.0  0.74815  0.09630  0.50000  1.0000
  X   X588      1.0  0.73333  0.11111  0.50000  1.0000
  N   N941      1.0  0.74815  0.11852  0.50000  1.0000
  C   C1454     1.0  0.73333  0.13333  0.50000  1.0000
  N   N942      1.0  0.74815  0.14074  0.50000  1.0000
  C   C1455     1.0  0.73333  0.15556  0.50000  1.0000
  C   C1456     1.0  0.74815  0.16296  0.50000  1.0000
  C   C1457     1.0  0.73333  0.17778  0.50000  1.0000
  C   C1458     1.0  0.74815  0.18519  0.50000  1.0000
  X   X589      1.0  0.73333  0.20000  0.50000  1.0000
  X   X590      1.0  0.74815  0.20741  0.50000  1.0000
  C   C1459     1.0  0.73333  0.22222  0.50000  1.0000
  C   C1460     1.0  0.74815  0.22963  0.50000  1.0000
  C   C1461     1.0  0.73333  0.24444  0.50000  1.0000
  N   N943      1.0  0.74815  0.25185  0.50000  1.0000
  N   N944      1.0  0.73333  0.26667  0.50000  1.0000
  X   X591      1.0  0.74815  0.27407  0.50000  1.0000
  N   N945      1.0  0.73333  0.28889  0.50000  1.0000
  X   X592      1.0  0.74815  0.29630  0.50000  1.0000
  C   C1462     1.0  0.73333  0.31111  0.50000  1.0000
  N   N946      1.0  0.74815  0.31852  0.50000  1.0000
  N   N947      1.0  0.73333  0.33333  0.50000  1.0000
  C   C1463     1.0  0.74815  0.34074  0.50000  1.0000
  X   X593      1.0  0.73333  0.35556  0.50000  1.0000
  N   N948      1.0  0.74815  0.36296  0.50000  1.0000
  N   N949      1.0  0.73333  0.37778  0.50000  1.0000
  C   C1464     1.0  0.74815  0.38519  0.50000  1.0000
  N   N950      1.0  0.73333  0.40000  0.50000  1.0000
  C   C1465     1.0  0.74815  0.40741  0.50000  1.0000
  X   X594      1.0  0.73333  0.42222  0.50000  1.0000
  X   X595      1.0  0.74815  0.42963  0.50000  1.0000
  C   C1466     1.0  0.73333  0.44444  0.50000  1.0000
  C   C1467     1.0  0.74815  0.45185  0.50000  1.0000
  N   N951      1.0  0.73333  0.46667  0.50000  1.0000
  C   C1468     1.0  0.74815  0.47407  0.50000  1.0000
  N   N952      1.0  0.73333  0.48889  0.50000  1.0000
  C   C1469     1.0  0.74815  0.49630  0.50000  1.0000
  X   X596      1.0  0.73333  0.51111  0.50000  1.0000
  N   N953      1.0  0.74815  0.51852  0.50000  1.0000
  C   C1470     1.0  0.73333  0.53333  0.50000  1.0000
  C   C1471     1.0  0.74815  0.54074  0.50000  1.0000
  N   N954      1.0  0.73333  0.55556  0.50000  1.0000
  C   C1472     1.0  0.74815  0.56296  0.50000  1.0000
  N   N955      1.0  0.73333  0.57778  0.50000  1.0000
  C   C1473     1.0  0.74815  0.58519  0.50000  1.0000
  C   C1474     1.0  0.73333  0.60000  0.50000  1.0000
  C   C1475     1.0  0.74815  0.60741  0.50000  1.0000
  C   C1476     1.0  0.73333  0.62222  0.50000  1.0000
  N   N956      1.0  0.74815  0.62963  0.50000  1.0000
  N   N957      1.0  0.73333  0.64444  0.50000  1.0000
  X   X597      1.0  0.74815  0.65185  0.50000  1.0000
  N   N958      1.0  0.73333  0.66667  0.50000  1.0000
  C   C1477     1.0  0.74815  0.67407  0.50000  1.0000
  C   C1478     1.0  0.73333  0.68889  0.50000  1.0000
  C   C1479     1.0  0.74815  0.69630  0.50000  1.0000
  N   N959      1.0  0.73333  0.71111  0.50000  1.0000
  X   X598      1.0  0.74815  0.71852  0.50000  1.0000
  C   C1480     1.0  0.73333  0.73333  0.50000  1.0000
  N   N960      1.0  0.74815  0.74074  0.50000  1.0000
  C   C1481     1.0  0.73333  0.75556  0.50000  1.0000
  C   C1482     1.0  0.74815  0.76296  0.50000  1.0000
  X   X599      1.0  0.73333  0.77778  0.50000  1.0000
  X   X600      1.0  0.74815  0.78519  0.50000  1.0000
  N   N961      1.0  0.73333  0.80000  0.50000  1.0000
  X   X601      1.0  0.74815  0.80741  0.50000  1.0000
  X   X602      1.0  0.73333  0.82222  0.50000  1.0000
  N   N962      1.0  0.74815  0.82963  0.50000  1.0000
  C   C1483     1.0  0.73333  0.84444  0.50000  1.0000
  N   N963      1.0  0.74815  0.85185  0.50000  1.0000
  N   N964      1.0  0.73333  0.86667  0.50000  1.0000
  N   N965      1.0  0.74815  0.87407  0.50000  1.0000
  N   N966      1.0  0.73333  0.88889  0.50000  1.0000
  N   N967      1.0  0.74815  0.89630  0.50000  1.0000
  N   N968      1.0  0.73333  0.91111  0.50000  1.0000
  X   X603      1.0  0.74815  0.91852  0.50000  1.0000
  C   C1484     1.0  0.73333  0.93333  0.50000  1.0000
  N   N969      1.0  0.74815  0.94074  0.50000  1.0000
  C   C1485     1.0  0.73333  0.95556  0.50000  1.0000
  C   C1486     1.0  0.74815  0.96296  0.50000  1.0000
  C   C1487     1.0  0.73333  0.97778  0.50000  1.0000
  C   C1488     1.0  0.74815  0.98519  0.50000  1.0000
  C   C1489     1.0  0.75556  0.00000  0.50000  1.0000
  C   C1490     1.0  0.77037  0.00741  0.50000  1.0000
  N   N970      1.0  0.75556  0.02222  0.50000  1.0000
  C   C1491     1.0  0.77037  0.02963  0.50000  1.0000
  X   X604      1.0  0.75556  0.04444  0.50000  1.0000
  N   N971      1.0  0.77037  0.05185  0.50000  1.0000
  X   X605      1.0  0.75556  0.06667  0.50000  1.0000
  X   X606      1.0  0.77037  0.07407  0.50000  1.0000
  C   C1492     1.0  0.75556  0.08889  0.50000  1.0000
  N   N972      1.0  0.77037  0.09630  0.50000  1.0000
  C   C1493     1.0  0.75556  0.11111  0.50000  1.0000
  N   N973      1.0  0.77037  0.11852  0.50000  1.0000
  X   X607      1.0  0.75556  0.13333  0.50000  1.0000
  X   X608      1.0  0.77037  0.14074  0.50000  1.0000
  C   C1494     1.0  0.75556  0.15556  0.50000  1.0000
  C   C1495     1.0  0.77037  0.16296  0.50000  1.0000
  C   C1496     1.0  0.75556  0.17778  0.50000  1.0000
  C   C1497     1.0  0.77037  0.18519  0.50000  1.0000
  N   N974      1.0  0.75556  0.20000  0.50000  1.0000
  X   X609      1.0  0.77037  0.20741  0.50000  1.0000
  N   N975      1.0  0.75556  0.22222  0.50000  1.0000
  N   N976      1.0  0.77037  0.22963  0.50000  1.0000
  N   N977      1.0  0.75556  0.24444  0.50000  1.0000
  X   X610      1.0  0.77037  0.25185  0.50000  1.0000
  X   X611      1.0  0.75556  0.26667  0.50000  1.0000
  N   N978      1.0  0.77037  0.27407  0.50000  1.0000
  N   N979      1.0  0.75556  0.28889  0.50000  1.0000
  C   C1498     1.0  0.77037  0.29630  0.50000  1.0000
  X   X612      1.0  0.75556  0.31111  0.50000  1.0000
  N   N980      1.0  0.77037  0.31852  0.50000  1.0000
  C   C1499     1.0  0.75556  0.33333  0.50000  1.0000
  C   C1500     1.0  0.77037  0.34074  0.50000  1.0000
  C   C1501     1.0  0.75556  0.35556  0.50000  1.0000
  N   N981      1.0  0.77037  0.36296  0.50000  1.0000
  C   C1502     1.0  0.75556  0.37778  0.50000  1.0000
  N   N982      1.0  0.77037  0.38519  0.50000  1.0000
  C   C1503     1.0  0.75556  0.40000  0.50000  1.0000
  C   C1504     1.0  0.77037  0.40741  0.50000  1.0000
  N   N983      1.0  0.75556  0.42222  0.50000  1.0000
  C   C1505     1.0  0.77037  0.42963  0.50000  1.0000
  N   N984      1.0  0.75556  0.44444  0.50000  1.0000
  C   C1506     1.0  0.77037  0.45185  0.50000  1.0000
  C   C1507     1.0  0.75556  0.46667  0.50000  1.0000
  N   N985      1.0  0.77037  0.47407  0.50000  1.0000
  N   N986      1.0  0.75556  0.48889  0.50000  1.0000
  X   X613      1.0  0.77037  0.49630  0.50000  1.0000
  C   C1508     1.0  0.75556  0.51111  0.50000  1.0000
  C   C1509     1.0  0.77037  0.51852  0.50000  1.0000
  C   C1510     1.0  0.75556  0.53333  0.50000  1.0000
  C   C1511     1.0  0.77037  0.54074  0.50000  1.0000
  C   C1512     1.0  0.75556  0.55556  0.50000  1.0000
  C   C1513     1.0  0.77037  0.56296  0.50000  1.0000
  N   N987      1.0  0.75556  0.57778  0.50000  1.0000
  X   X614      1.0  0.77037  0.58519  0.50000  1.0000
  C   C1514     1.0  0.75556  0.60000  0.50000  1.0000
  N   N988      1.0  0.77037  0.60741  0.50000  1.0000
  C   C1515     1.0  0.75556  0.62222  0.50000  1.0000
  C   C1516     1.0  0.77037  0.62963  0.50000  1.0000
  X   X615      1.0  0.75556  0.64444  0.50000  1.0000
  N   N989      1.0  0.77037  0.65185  0.50000  1.0000
  N   N990      1.0  0.75556  0.66667  0.50000  1.0000
  X   X616      1.0  0.77037  0.67407  0.50000  1.0000
  C   C1517     1.0  0.75556  0.68889  0.50000  1.0000
  N   N991      1.0  0.77037  0.69630  0.50000  1.0000
  N   N992      1.0  0.75556  0.71111  0.50000  1.0000
  X   X617      1.0  0.77037  0.71852  0.50000  1.0000
  X   X618      1.0  0.75556  0.73333  0.50000  1.0000
  N   N993      1.0  0.77037  0.74074  0.50000  1.0000
  C   C1518     1.0  0.75556  0.75556  0.50000  1.0000
  N   N994      1.0  0.77037  0.76296  0.50000  1.0000
  N   N995      1.0  0.75556  0.77778  0.50000  1.0000
  N   N996      1.0  0.77037  0.78519  0.50000  1.0000
  N   N997      1.0  0.75556  0.80000  0.50000  1.0000
  C   C1519     1.0  0.77037  0.80741  0.50000  1.0000
  X   X619      1.0  0.75556  0.82222  0.50000  1.0000
  N   N998      1.0  0.77037  0.82963  0.50000  1.0000
  X   X620      1.0  0.75556  0.84444  0.50000  1.0000
  X   X621      1.0  0.77037  0.85185  0.50000  1.0000
  C   C1520     1.0  0.75556  0.86667  0.50000  1.0000
  C   C1521     1.0  0.77037  0.87407  0.50000  1.0000
  X   X622      1.0  0.75556  0.88889  0.50000  1.0000
  X   X623      1.0  0.77037  0.89630  0.50000  1.0000
  N   N999      1.0  0.75556  0.91111  0.50000  1.0000
  C   C1522     1.0  0.77037  0.91852  0.50000  1.0000
  X   X624      1.0  0.75556  0.93333  0.50000  1.0000
  N   N1000     1.0  0.77037  0.94074  0.50000  1.0000
  C   C1523     1.0  0.75556  0.95556  0.50000  1.0000
  C   C1524     1.0  0.77037  0.96296  0.50000  1.0000
  C   C1525     1.0  0.75556  0.97778  0.50000  1.0000
  C   C1526     1.0  0.77037  0.98519  0.50000  1.0000
  N   N1001     1.0  0.77778  0.00000  0.50000  1.0000
  X   X625      1.0  0.79259  0.00741  0.50000  1.0000
  C   C1527     1.0  0.77778  0.02222  0.50000  1.0000
  N   N1002     1.0  0.79259  0.02963  0.50000  1.0000
  C   C1528     1.0  0.77778  0.04444  0.50000  1.0000
  C   C1529     1.0  0.79259  0.05185  0.50000  1.0000
  N   N1003     1.0  0.77778  0.06667  0.50000  1.0000
  C   C1530     1.0  0.79259  0.07407  0.50000  1.0000
  N   N1004     1.0  0.77778  0.08889  0.50000  1.0000
  C   C1531     1.0  0.79259  0.09630  0.50000  1.0000
  X   X626      1.0  0.77778  0.11111  0.50000  1.0000
  X   X627      1.0  0.79259  0.11852  0.50000  1.0000
  N   N1005     1.0  0.77778  0.13333  0.50000  1.0000
  X   X628      1.0  0.79259  0.14074  0.50000  1.0000
  N   N1006     1.0  0.77778  0.15556  0.50000  1.0000
  N   N1007     1.0  0.79259  0.16296  0.50000  1.0000
  N   N1008     1.0  0.77778  0.17778  0.50000  1.0000
  X   X629      1.0  0.79259  0.18519  0.50000  1.0000
  N   N1009     1.0  0.77778  0.20000  0.50000  1.0000
  N   N1010     1.0  0.79259  0.20741  0.50000  1.0000
  X   X630      1.0  0.77778  0.22222  0.50000  1.0000
  N   N1011     1.0  0.79259  0.22963  0.50000  1.0000
  N   N1012     1.0  0.77778  0.24444  0.50000  1.0000
  C   C1532     1.0  0.79259  0.25185  0.50000  1.0000
  X   X631      1.0  0.77778  0.26667  0.50000  1.0000
  N   N1013     1.0  0.79259  0.27407  0.50000  1.0000
  N   N1014     1.0  0.77778  0.28889  0.50000  1.0000
  X   X632      1.0  0.79259  0.29630  0.50000  1.0000
  C   C1533     1.0  0.77778  0.31111  0.50000  1.0000
  N   N1015     1.0  0.79259  0.31852  0.50000  1.0000
  N   N1016     1.0  0.77778  0.33333  0.50000  1.0000
  X   X633      1.0  0.79259  0.34074  0.50000  1.0000
  C   C1534     1.0  0.77778  0.35556  0.50000  1.0000
  C   C1535     1.0  0.79259  0.36296  0.50000  1.0000
  X   X634      1.0  0.77778  0.37778  0.50000  1.0000
  X   X635      1.0  0.79259  0.38519  0.50000  1.0000
  C   C1536     1.0  0.77778  0.40000  0.50000  1.0000
  C   C1537     1.0  0.79259  0.40741  0.50000  1.0000
  C   C1538     1.0  0.77778  0.42222  0.50000  1.0000
  C   C1539     1.0  0.79259  0.42963  0.50000  1.0000
  C   C1540     1.0  0.77778  0.44444  0.50000  1.0000
  C   C1541     1.0  0.79259  0.45185  0.50000  1.0000
  C   C1542     1.0  0.77778  0.46667  0.50000  1.0000
  C   C1543     1.0  0.79259  0.47407  0.50000  1.0000
  X   X636      1.0  0.77778  0.48889  0.50000  1.0000
  N   N1017     1.0  0.79259  0.49630  0.50000  1.0000
  N   N1018     1.0  0.77778  0.51111  0.50000  1.0000
  C   C1544     1.0  0.79259  0.51852  0.50000  1.0000
  C   C1545     1.0  0.77778  0.53333  0.50000  1.0000
  C   C1546     1.0  0.79259  0.54074  0.50000  1.0000
  N   N1019     1.0  0.77778  0.55556  0.50000  1.0000
  X   X637      1.0  0.79259  0.56296  0.50000  1.0000
  N   N1020     1.0  0.77778  0.57778  0.50000  1.0000
  N   N1021     1.0  0.79259  0.58519  0.50000  1.0000
  X   X638      1.0  0.77778  0.60000  0.50000  1.0000
  N   N1022     1.0  0.79259  0.60741  0.50000  1.0000
  C   C1547     1.0  0.77778  0.62222  0.50000  1.0000
  C   C1548     1.0  0.79259  0.62963  0.50000  1.0000
  C   C1549     1.0  0.77778  0.64444  0.50000  1.0000
  C   C1550     1.0  0.79259  0.65185  0.50000  1.0000
  N   N1023     1.0  0.77778  0.66667  0.50000  1.0000
  C   C1551     1.0  0.79259  0.67407  0.50000  1.0000
  X   X639      1.0  0.77778  0.68889  0.50000  1.0000
  N   N1024     1.0  0.79259  0.69630  0.50000  1.0000
  X   X640      1.0  0.77778  0.71111  0.50000  1.0000
  N   N1025     1.0  0.79259  0.71852  0.50000  1.0000
  N   N1026     1.0  0.77778  0.73333  0.50000  1.0000
  C   C1552     1.0  0.79259  0.74074  0.50000  1.0000
  X   X641      1.0  0.77778  0.75556  0.50000  1.0000
  X   X642      1.0  0.79259  0.76296  0.50000  1.0000
  X   X643      1.0  0.77778  0.77778  0.50000  1.0000
  X   X644      1.0  0.79259  0.78519  0.50000  1.0000
  C   C1553     1.0  0.77778  0.80000  0.50000  1.0000
  N   N1027     1.0  0.79259  0.80741  0.50000  1.0000
  N   N1028     1.0  0.77778  0.82222  0.50000  1.0000
  X   X645      1.0  0.79259  0.82963  0.50000  1.0000
  N   N1029     1.0  0.77778  0.84444  0.50000  1.0000
  N   N1030     1.0  0.79259  0.85185  0.50000  1.0000
  N   N1031     1.0  0.77778  0.86667  0.50000  1.0000
  X   X646      1.0  0.79259  0.87407  0.50000  1.0000
  N   N1032     1.0  0.77778  0.88889  0.50000  1.0000
  C   C1554     1.0  0.79259  0.89630  0.50000  1.0000
  N   N1033     1.0  0.77778  0.91111  0.50000  1.0000
  C   C1555     1.0  0.79259  0.91852  0.50000  1.0000
  C   C1556     1.0  0.77778  0.93333  0.50000  1.0000
  C   C1557     1.0  0.79259  0.94074  0.50000  1.0000
  N   N1034     1.0  0.77778  0.95556  0.50000  1.0000
  X   X647      1.0  0.79259  0.96296  0.50000  1.0000
  C   C1558     1.0  0.77778  0.97778  0.50000  1.0000
  N   N1035     1.0  0.79259  0.98519  0.50000  1.0000
  N   N1036     1.0  0.80000  0.00000  0.50000  1.0000
  C   C1559     1.0  0.81481  0.00741  0.50000  1.0000
  X   X648      1.0  0.80000  0.02222  0.50000  1.0000
  N   N1037     1.0  0.81481  0.02963  0.50000  1.0000
  N   N1038     1.0  0.80000  0.04444  0.50000  1.0000
  X   X649      1.0  0.81481  0.05185  0.50000  1.0000
  C   C1560     1.0  0.80000  0.06667  0.50000  1.0000
  C   C1561     1.0  0.81481  0.07407  0.50000  1.0000
  C   C1562     1.0  0.80000  0.08889  0.50000  1.0000
  C   C1563     1.0  0.81481  0.09630  0.50000  1.0000
  N   N1039     1.0  0.80000  0.11111  0.50000  1.0000
  N   N1040     1.0  0.81481  0.11852  0.50000  1.0000
  N   N1041     1.0  0.80000  0.13333  0.50000  1.0000
  N   N1042     1.0  0.81481  0.14074  0.50000  1.0000
  X   X650      1.0  0.80000  0.15556  0.50000  1.0000
  N   N1043     1.0  0.81481  0.16296  0.50000  1.0000
  N   N1044     1.0  0.80000  0.17778  0.50000  1.0000
  C   C1564     1.0  0.81481  0.18519  0.50000  1.0000
  X   X651      1.0  0.80000  0.20000  0.50000  1.0000
  N   N1045     1.0  0.81481  0.20741  0.50000  1.0000
  C   C1565     1.0  0.80000  0.22222  0.50000  1.0000
  C   C1566     1.0  0.81481  0.22963  0.50000  1.0000
  C   C1567     1.0  0.80000  0.24444  0.50000  1.0000
  C   C1568     1.0  0.81481  0.25185  0.50000  1.0000
  C   C1569     1.0  0.80000  0.26667  0.50000  1.0000
  C   C1570     1.0  0.81481  0.27407  0.50000  1.0000
  X   X652      1.0  0.80000  0.28889  0.50000  1.0000
  N   N1046     1.0  0.81481  0.29630  0.50000  1.0000
  N   N1047     1.0  0.80000  0.31111  0.50000  1.0000
  C   C1571     1.0  0.81481  0.31852  0.50000  1.0000
  X   X653      1.0  0.80000  0.33333  0.50000  1.0000
  N   N1048     1.0  0.81481  0.34074  0.50000  1.0000
  N   N1049     1.0  0.80000  0.35556  0.50000  1.0000
  C   C1572     1.0  0.81481  0.36296  0.50000  1.0000
  N   N1050     1.0  0.80000  0.37778  0.50000  1.0000
  N   N1051     1.0  0.81481  0.38519  0.50000  1.0000
  N   N1052     1.0  0.80000  0.40000  0.50000  1.0000
  X   X654      1.0  0.81481  0.40741  0.50000  1.0000
  C   C1573     1.0  0.80000  0.42222  0.50000  1.0000
  C   C1574     1.0  0.81481  0.42963  0.50000  1.0000
  C   C1575     1.0  0.80000  0.44444  0.50000  1.0000
  C   C1576     1.0  0.81481  0.45185  0.50000  1.0000
  C   C1577     1.0  0.80000  0.46667  0.50000  1.0000
  C   C1578     1.0  0.81481  0.47407  0.50000  1.0000
  C   C1579     1.0  0.80000  0.48889  0.50000  1.0000
  C   C1580     1.0  0.81481  0.49630  0.50000  1.0000
  C   C1581     1.0  0.80000  0.51111  0.50000  1.0000
  C   C1582     1.0  0.81481  0.51852  0.50000  1.0000
  C   C1583     1.0  0.80000  0.53333  0.50000  1.0000
  C   C1584     1.0  0.81481  0.54074  0.50000  1.0000
  N   N1053     1.0  0.80000  0.55556  0.50000  1.0000
  C   C1585     1.0  0.81481  0.56296  0.50000  1.0000
  X   X655      1.0  0.80000  0.57778  0.50000  1.0000
  N   N1054     1.0  0.81481  0.58519  0.50000  1.0000
  C   C1586     1.0  0.80000  0.60000  0.50000  1.0000
  C   C1587     1.0  0.81481  0.60741  0.50000  1.0000
  C   C1588     1.0  0.80000  0.62222  0.50000  1.0000
  C   C1589     1.0  0.81481  0.62963  0.50000  1.0000
  C   C1590     1.0  0.80000  0.64444  0.50000  1.0000
  C   C1591     1.0  0.81481  0.65185  0.50000  1.0000
  C   C1592     1.0  0.80000  0.66667  0.50000  1.0000
  N   N1055     1.0  0.81481  0.67407  0.50000  1.0000
  C   C1593     1.0  0.80000  0.68889  0.50000  1.0000
  N   N1056     1.0  0.81481  0.69630  0.50000  1.0000
  C   C1594     1.0  0.80000  0.71111  0.50000  1.0000
  C   C1595     1.0  0.81481  0.71852  0.50000  1.0000
  C   C1596     1.0  0.80000  0.73333  0.50000  1.0000
  N   N1057     1.0  0.81481  0.74074  0.50000  1.0000
  N   N1058     1.0  0.80000  0.75556  0.50000  1.0000
  N   N1059     1.0  0.81481  0.76296  0.50000  1.0000
  N   N1060     1.0  0.80000  0.77778  0.50000  1.0000
  X   X656      1.0  0.81481  0.78519  0.50000  1.0000
  N   N1061     1.0  0.80000  0.80000  0.50000  1.0000
  N   N1062     1.0  0.81481  0.80741  0.50000  1.0000
  X   X657      1.0  0.80000  0.82222  0.50000  1.0000
  N   N1063     1.0  0.81481  0.82963  0.50000  1.0000
  N   N1064     1.0  0.80000  0.84444  0.50000  1.0000
  N   N1065     1.0  0.81481  0.85185  0.50000  1.0000
  X   X658      1.0  0.80000  0.86667  0.50000  1.0000
  N   N1066     1.0  0.81481  0.87407  0.50000  1.0000
  N   N1067     1.0  0.80000  0.88889  0.50000  1.0000
  X   X659      1.0  0.81481  0.89630  0.50000  1.0000
  C   C1597     1.0  0.80000  0.91111  0.50000  1.0000
  C   C1598     1.0  0.81481  0.91852  0.50000  1.0000
  C   C1599     1.0  0.80000  0.93333  0.50000  1.0000
  C   C1600     1.0  0.81481  0.94074  0.50000  1.0000
  N   N1068     1.0  0.80000  0.95556  0.50000  1.0000
  C   C1601     1.0  0.81481  0.96296  0.50000  1.0000
  X   X660      1.0  0.80000  0.97778  0.50000  1.0000
  N   N1069     1.0  0.81481  0.98519  0.50000  1.0000
  N   N1070     1.0  0.82222  0.00000  0.50000  1.0000
  X   X661      1.0  0.83704  0.00741  0.50000  1.0000
  C   C1602     1.0  0.82222  0.02222  0.50000  1.0000
  N   N1071     1.0  0.83704  0.02963  0.50000  1.0000
  X   X662      1.0  0.82222  0.04444  0.50000  1.0000
  N   N1072     1.0  0.83704  0.05185  0.50000  1.0000
  N   N1073     1.0  0.82222  0.06667  0.50000  1.0000
  C   C1603     1.0  0.83704  0.07407  0.50000  1.0000
  C   C1604     1.0  0.82222  0.08889  0.50000  1.0000
  C   C1605     1.0  0.83704  0.09630  0.50000  1.0000
  C   C1606     1.0  0.82222  0.11111  0.50000  1.0000
  C   C1607     1.0  0.83704  0.11852  0.50000  1.0000
  X   X663      1.0  0.82222  0.13333  0.50000  1.0000
  X   X664      1.0  0.83704  0.14074  0.50000  1.0000
  C   C1608     1.0  0.82222  0.15556  0.50000  1.0000
  C   C1609     1.0  0.83704  0.16296  0.50000  1.0000
  C   C1610     1.0  0.82222  0.17778  0.50000  1.0000
  C   C1611     1.0  0.83704  0.18519  0.50000  1.0000
  C   C1612     1.0  0.82222  0.20000  0.50000  1.0000
  C   C1613     1.0  0.83704  0.20741  0.50000  1.0000
  C   C1614     1.0  0.82222  0.22222  0.50000  1.0000
  C   C1615     1.0  0.83704  0.22963  0.50000  1.0000
  N   N1074     1.0  0.82222  0.24444  0.50000  1.0000
  X   X665      1.0  0.83704  0.25185  0.50000  1.0000
  C   C1616     1.0  0.82222  0.26667  0.50000  1.0000
  N   N1075     1.0  0.83704  0.27407  0.50000  1.0000
  N   N1076     1.0  0.82222  0.28889  0.50000  1.0000
  X   X666      1.0  0.83704  0.29630  0.50000  1.0000
  C   C1617     1.0  0.82222  0.31111  0.50000  1.0000
  C   C1618     1.0  0.83704  0.31852  0.50000  1.0000
  C   C1619     1.0  0.82222  0.33333  0.50000  1.0000
  C   C1620     1.0  0.83704  0.34074  0.50000  1.0000
  C   C1621     1.0  0.82222  0.35556  0.50000  1.0000
  C   C1622     1.0  0.83704  0.36296  0.50000  1.0000
  N   N1077     1.0  0.82222  0.37778  0.50000  1.0000
  X   X667      1.0  0.83704  0.38519  0.50000  1.0000
  X   X668      1.0  0.82222  0.40000  0.50000  1.0000
  N   N1078     1.0  0.83704  0.40741  0.50000  1.0000
  N   N1079     1.0  0.82222  0.42222  0.50000  1.0000
  C   C1623     1.0  0.83704  0.42963  0.50000  1.0000
  C   C1624     1.0  0.82222  0.44444  0.50000  1.0000
  C   C1625     1.0  0.83704  0.45185  0.50000  1.0000
  C   C1626     1.0  0.82222  0.46667  0.50000  1.0000
  C   C1627     1.0  0.83704  0.47407  0.50000  1.0000
  C   C1628     1.0  0.82222  0.48889  0.50000  1.0000
  C   C1629     1.0  0.83704  0.49630  0.50000  1.0000
  C   C1630     1.0  0.82222  0.51111  0.50000  1.0000
  N   N1080     1.0  0.83704  0.51852  0.50000  1.0000
  C   C1631     1.0  0.82222  0.53333  0.50000  1.0000
  N   N1081     1.0  0.83704  0.54074  0.50000  1.0000
  C   C1632     1.0  0.82222  0.55556  0.50000  1.0000
  N   N1082     1.0  0.83704  0.56296  0.50000  1.0000
  C   C1633     1.0  0.82222  0.57778  0.50000  1.0000
  N   N1083     1.0  0.83704  0.58519  0.50000  1.0000
  C   C1634     1.0  0.82222  0.60000  0.50000  1.0000
  C   C1635     1.0  0.83704  0.60741  0.50000  1.0000
  C   C1636     1.0  0.82222  0.62222  0.50000  1.0000
  C   C1637     1.0  0.83704  0.62963  0.50000  1.0000
  C   C1638     1.0  0.82222  0.64444  0.50000  1.0000
  N   N1084     1.0  0.83704  0.65185  0.50000  1.0000
  N   N1085     1.0  0.82222  0.66667  0.50000  1.0000
  X   X669      1.0  0.83704  0.67407  0.50000  1.0000
  X   X670      1.0  0.82222  0.68889  0.50000  1.0000
  X   X671      1.0  0.83704  0.69630  0.50000  1.0000
  C   C1639     1.0  0.82222  0.71111  0.50000  1.0000
  N   N1086     1.0  0.83704  0.71852  0.50000  1.0000
  N   N1087     1.0  0.82222  0.73333  0.50000  1.0000
  X   X672      1.0  0.83704  0.74074  0.50000  1.0000
  X   X673      1.0  0.82222  0.75556  0.50000  1.0000
  X   X674      1.0  0.83704  0.76296  0.50000  1.0000
  X   X675      1.0  0.82222  0.77778  0.50000  1.0000
  N   N1088     1.0  0.83704  0.78519  0.50000  1.0000
  N   N1089     1.0  0.82222  0.80000  0.50000  1.0000
  C   C1640     1.0  0.83704  0.80741  0.50000  1.0000
  X   X676      1.0  0.82222  0.82222  0.50000  1.0000
  X   X677      1.0  0.83704  0.82963  0.50000  1.0000
  C   C1641     1.0  0.82222  0.84444  0.50000  1.0000
  C   C1642     1.0  0.83704  0.85185  0.50000  1.0000
  X   X678      1.0  0.82222  0.86667  0.50000  1.0000
  X   X679      1.0  0.83704  0.87407  0.50000  1.0000
  X   X680      1.0  0.82222  0.88889  0.50000  1.0000
  N   N1090     1.0  0.83704  0.89630  0.50000  1.0000
  N   N1091     1.0  0.82222  0.91111  0.50000  1.0000
  C   C1643     1.0  0.83704  0.91852  0.50000  1.0000
  N   N1092     1.0  0.82222  0.93333  0.50000  1.0000
  X   X681      1.0  0.83704  0.94074  0.50000  1.0000
  C   C1644     1.0  0.82222  0.95556  0.50000  1.0000
  N   N1093     1.0  0.83704  0.96296  0.50000  1.0000
  C   C1645     1.0  0.82222  0.97778  0.50000  1.0000
  C   C1646     1.0  0.83704  0.98519  0.50000  1.0000
  N   N1094     1.0  0.84444  0.00000  0.50000  1.0000
  C   C1647     1.0  0.85926  0.00741  0.50000  1.0000
  X   X682      1.0  0.84444  0.02222  0.50000  1.0000
  N   N1095     1.0  0.85926  0.02963  0.50000  1.0000
  N   N1096     1.0  0.84444  0.04444  0.50000  1.0000
  X   X683      1.0  0.85926  0.05185  0.50000  1.0000
  C   C1648     1.0  0.84444  0.06667  0.50000  1.0000
  N   N1097     1.0  0.85926  0.07407  0.50000  1.0000
  C   C1649     1.0  0.84444  0.08889  0.50000  1.0000
  C   C1650     1.0  0.85926  0.09630  0.50000  1.0000
  C   C1651     1.0  0.84444  0.11111  0.50000  1.0000
  N   N1098     1.0  0.85926  0.11852  0.50000  1.0000
  N   N1099     1.0  0.84444  0.13333  0.50000  1.0000
  X   X684      1.0  0.85926  0.14074  0.50000  1.0000
  N   N1100     1.0  0.84444  0.15556  0.50000  1.0000
  C   C1652     1.0  0.85926  0.16296  0.50000  1.0000
  C   C1653     1.0  0.84444  0.17778  0.50000  1.0000
  C   C1654     1.0  0.85926  0.18519  0.50000  1.0000
  N   N1101     1.0  0.84444  0.20000  0.50000  1.0000
  X   X685      1.0  0.85926  0.20741  0.50000  1.0000
  C   C1655     1.0  0.84444  0.22222  0.50000  1.0000
  N   N1102     1.0  0.85926  0.22963  0.50000  1.0000
  N   N1103     1.0  0.84444  0.24444  0.50000  1.0000
  N   N1104     1.0  0.85926  0.25185  0.50000  1.0000
  X   X686      1.0  0.84444  0.26667  0.50000  1.0000
  N   N1105     1.0  0.85926  0.27407  0.50000  1.0000
  X   X687      1.0  0.84444  0.28889  0.50000  1.0000
  N   N1106     1.0  0.85926  0.29630  0.50000  1.0000
  N   N1107     1.0  0.84444  0.31111  0.50000  1.0000
  N   N1108     1.0  0.85926  0.31852  0.50000  1.0000
  N   N1109     1.0  0.84444  0.33333  0.50000  1.0000
  X   X688      1.0  0.85926  0.34074  0.50000  1.0000
  C   C1656     1.0  0.84444  0.35556  0.50000  1.0000
  N   N1110     1.0  0.85926  0.36296  0.50000  1.0000
  N   N1111     1.0  0.84444  0.37778  0.50000  1.0000
  C   C1657     1.0  0.85926  0.38519  0.50000  1.0000
  X   X689      1.0  0.84444  0.40000  0.50000  1.0000
  N   N1112     1.0  0.85926  0.40741  0.50000  1.0000
  C   C1658     1.0  0.84444  0.42222  0.50000  1.0000
  N   N1113     1.0  0.85926  0.42963  0.50000  1.0000
  C   C1659     1.0  0.84444  0.44444  0.50000  1.0000
  N   N1114     1.0  0.85926  0.45185  0.50000  1.0000
  C   C1660     1.0  0.84444  0.46667  0.50000  1.0000
  C   C1661     1.0  0.85926  0.47407  0.50000  1.0000
  C   C1662     1.0  0.84444  0.48889  0.50000  1.0000
  C   C1663     1.0  0.85926  0.49630  0.50000  1.0000
  C   C1664     1.0  0.84444  0.51111  0.50000  1.0000
  C   C1665     1.0  0.85926  0.51852  0.50000  1.0000
  X   X690      1.0  0.84444  0.53333  0.50000  1.0000
  X   X691      1.0  0.85926  0.54074  0.50000  1.0000
  X   X692      1.0  0.84444  0.55556  0.50000  1.0000
  X   X693      1.0  0.85926  0.56296  0.50000  1.0000
  X   X694      1.0  0.84444  0.57778  0.50000  1.0000
  X   X695      1.0  0.85926  0.58519  0.50000  1.0000
  C   C1666     1.0  0.84444  0.60000  0.50000  1.0000
  C   C1667     1.0  0.85926  0.60741  0.50000  1.0000
  C   C1668     1.0  0.84444  0.62222  0.50000  1.0000
  C   C1669     1.0  0.85926  0.62963  0.50000  1.0000
  C   C1670     1.0  0.84444  0.64444  0.50000  1.0000
  C   C1671     1.0  0.85926  0.65185  0.50000  1.0000
  X   X696      1.0  0.84444  0.66667  0.50000  1.0000
  N   N1115     1.0  0.85926  0.67407  0.50000  1.0000
  N   N1116     1.0  0.84444  0.68889  0.50000  1.0000
  X   X697      1.0  0.85926  0.69630  0.50000  1.0000
  N   N1117     1.0  0.84444  0.71111  0.50000  1.0000
  N   N1118     1.0  0.85926  0.71852  0.50000  1.0000
  X   X698      1.0  0.84444  0.73333  0.50000  1.0000
  N   N1119     1.0  0.85926  0.74074  0.50000  1.0000
  N   N1120     1.0  0.84444  0.75556  0.50000  1.0000
  C   C1672     1.0  0.85926  0.76296  0.50000  1.0000
  N   N1121     1.0  0.84444  0.77778  0.50000  1.0000
  C   C1673     1.0  0.85926  0.78519  0.50000  1.0000
  C   C1674     1.0  0.84444  0.80000  0.50000  1.0000
  C   C1675     1.0  0.85926  0.80741  0.50000  1.0000
  N   N1122     1.0  0.84444  0.82222  0.50000  1.0000
  C   C1676     1.0  0.85926  0.82963  0.50000  1.0000
  N   N1123     1.0  0.84444  0.84444  0.50000  1.0000
  C   C1677     1.0  0.85926  0.85185  0.50000  1.0000
  N   N1124     1.0  0.84444  0.86667  0.50000  1.0000
  C   C1678     1.0  0.85926  0.87407  0.50000  1.0000
  N   N1125     1.0  0.84444  0.88889  0.50000  1.0000
  C   C1679     1.0  0.85926  0.89630  0.50000  1.0000
  C   C1680     1.0  0.84444  0.91111  0.50000  1.0000
  N   N1126     1.0  0.85926  0.91852  0.50000  1.0000
  N   N1127     1.0  0.84444  0.93333  0.50000  1.0000
  X   X699      1.0  0.85926  0.94074  0.50000  1.0000
  X   X700      1.0  0.84444  0.95556  0.50000  1.0000
  N   N1128     1.0  0.85926  0.96296  0.50000  1.0000
  C   C1681     1.0  0.84444  0.97778  0.50000  1.0000
  C   C1682     1.0  0.85926  0.98519  0.50000  1.0000
  C   C1683     1.0  0.86667  0.00000  0.50000  1.0000
  C   C1684     1.0  0.88148  0.00741  0.50000  1.0000
  C   C1685     1.0  0.86667  0.02222  0.50000  1.0000
  C   C1686     1.0  0.88148  0.02963  0.50000  1.0000
  N   N1129     1.0  0.86667  0.04444  0.50000  1.0000
  C   C1687     1.0  0.88148  0.05185  0.50000  1.0000
  X   X701      1.0  0.86667  0.06667  0.50000  1.0000
  N   N1130     1.0  0.88148  0.07407  0.50000  1.0000
  C   C1688     1.0  0.86667  0.08889  0.50000  1.0000
  N   N1131     1.0  0.88148  0.09630  0.50000  1.0000
  C   C1689     1.0  0.86667  0.11111  0.50000  1.0000
  C   C1690     1.0  0.88148  0.11852  0.50000  1.0000
  X   X702      1.0  0.86667  0.13333  0.50000  1.0000
  N   N1132     1.0  0.88148  0.14074  0.50000  1.0000
  N   N1133     1.0  0.86667  0.15556  0.50000  1.0000
  C   C1691     1.0  0.88148  0.16296  0.50000  1.0000
  C   C1692     1.0  0.86667  0.17778  0.50000  1.0000
  C   C1693     1.0  0.88148  0.18519  0.50000  1.0000
  N   N1134     1.0  0.86667  0.20000  0.50000  1.0000
  C   C1694     1.0  0.88148  0.20741  0.50000  1.0000
  X   X703      1.0  0.86667  0.22222  0.50000  1.0000
  N   N1135     1.0  0.88148  0.22963  0.50000  1.0000
  C   C1695     1.0  0.86667  0.24444  0.50000  1.0000
  C   C1696     1.0  0.88148  0.25185  0.50000  1.0000
  X   X704      1.0  0.86667  0.26667  0.50000  1.0000
  X   X705      1.0  0.88148  0.27407  0.50000  1.0000
  C   C1697     1.0  0.86667  0.28889  0.50000  1.0000
  C   C1698     1.0  0.88148  0.29630  0.50000  1.0000
  X   X706      1.0  0.86667  0.31111  0.50000  1.0000
  X   X707      1.0  0.88148  0.31852  0.50000  1.0000
  N   N1136     1.0  0.86667  0.33333  0.50000  1.0000
  C   C1699     1.0  0.88148  0.34074  0.50000  1.0000
  X   X708      1.0  0.86667  0.35556  0.50000  1.0000
  N   N1137     1.0  0.88148  0.36296  0.50000  1.0000
  N   N1138     1.0  0.86667  0.37778  0.50000  1.0000
  X   X709      1.0  0.88148  0.38519  0.50000  1.0000
  C   C1700     1.0  0.86667  0.40000  0.50000  1.0000
  N   N1139     1.0  0.88148  0.40741  0.50000  1.0000
  C   C1701     1.0  0.86667  0.42222  0.50000  1.0000
  N   N1140     1.0  0.88148  0.42963  0.50000  1.0000
  X   X710      1.0  0.86667  0.44444  0.50000  1.0000
  X   X711      1.0  0.88148  0.45185  0.50000  1.0000
  C   C1702     1.0  0.86667  0.46667  0.50000  1.0000
  C   C1703     1.0  0.88148  0.47407  0.50000  1.0000
  C   C1704     1.0  0.86667  0.48889  0.50000  1.0000
  C   C1705     1.0  0.88148  0.49630  0.50000  1.0000
  C   C1706     1.0  0.86667  0.51111  0.50000  1.0000
  C   C1707     1.0  0.88148  0.51852  0.50000  1.0000
  N   N1141     1.0  0.86667  0.53333  0.50000  1.0000
  X   X712      1.0  0.88148  0.54074  0.50000  1.0000
  N   N1142     1.0  0.86667  0.55556  0.50000  1.0000
  N   N1143     1.0  0.88148  0.56296  0.50000  1.0000
  N   N1144     1.0  0.86667  0.57778  0.50000  1.0000
  C   C1708     1.0  0.88148  0.58519  0.50000  1.0000
  N   N1145     1.0  0.86667  0.60000  0.50000  1.0000
  N   N1146     1.0  0.88148  0.60741  0.50000  1.0000
  C   C1709     1.0  0.86667  0.62222  0.50000  1.0000
  N   N1147     1.0  0.88148  0.62963  0.50000  1.0000
  C   C1710     1.0  0.86667  0.64444  0.50000  1.0000
  N   N1148     1.0  0.88148  0.65185  0.50000  1.0000
  C   C1711     1.0  0.86667  0.66667  0.50000  1.0000
  N   N1149     1.0  0.88148  0.67407  0.50000  1.0000
  N   N1150     1.0  0.86667  0.68889  0.50000  1.0000
  X   X713      1.0  0.88148  0.69630  0.50000  1.0000
  X   X714      1.0  0.86667  0.71111  0.50000  1.0000
  N   N1151     1.0  0.88148  0.71852  0.50000  1.0000
  C   C1712     1.0  0.86667  0.73333  0.50000  1.0000
  C   C1713     1.0  0.88148  0.74074  0.50000  1.0000
  C   C1714     1.0  0.86667  0.75556  0.50000  1.0000
  N   N1152     1.0  0.88148  0.76296  0.50000  1.0000
  N   N1153     1.0  0.86667  0.77778  0.50000  1.0000
  X   X715      1.0  0.88148  0.78519  0.50000  1.0000
  C   C1715     1.0  0.86667  0.80000  0.50000  1.0000
  C   C1716     1.0  0.88148  0.80741  0.50000  1.0000
  N   N1154     1.0  0.86667  0.82222  0.50000  1.0000
  X   X716      1.0  0.88148  0.82963  0.50000  1.0000
  C   C1717     1.0  0.86667  0.84444  0.50000  1.0000
  N   N1155     1.0  0.88148  0.85185  0.50000  1.0000
  C   C1718     1.0  0.86667  0.86667  0.50000  1.0000
  N   N1156     1.0  0.88148  0.87407  0.50000  1.0000
  N   N1157     1.0  0.86667  0.88889  0.50000  1.0000
  X   X717      1.0  0.88148  0.89630  0.50000  1.0000
  C   C1719     1.0  0.86667  0.91111  0.50000  1.0000
  C   C1720     1.0  0.88148  0.91852  0.50000  1.0000
  X   X718      1.0  0.86667  0.93333  0.50000  1.0000
  N   N1158     1.0  0.88148  0.94074  0.50000  1.0000
  N   N1159     1.0  0.86667  0.95556  0.50000  1.0000
  X   X719      1.0  0.88148  0.96296  0.50000  1.0000
  C   C1721     1.0  0.86667  0.97778  0.50000  1.0000
  N   N1160     1.0  0.88148  0.98519  0.50000  1.0000
  C   C1722     1.0  0.88889  0.00000  0.50000  1.0000
  C   C1723     1.0  0.90370  0.00741  0.50000  1.0000
  C   C1724     1.0  0.88889  0.02222  0.50000  1.0000
  C   C1725     1.0  0.90370  0.02963  0.50000  1.0000
  C   C1726     1.0  0.88889  0.04444  0.50000  1.0000
  C   C1727     1.0  0.90370  0.05185  0.50000  1.0000
  C   C1728     1.0  0.88889  0.06667  0.50000  1.0000
  C   C1729     1.0  0.90370  0.07407  0.50000  1.0000
  X   X720      1.0  0.88889  0.08889  0.50000  1.0000
  X   X721      1.0  0.90370  0.09630  0.50000  1.0000
  C   C1730     1.0  0.88889  0.11111  0.50000  1.0000
  C   C1731     1.0  0.90370  0.11852  0.50000  1.0000
  N   N1161     1.0  0.88889  0.13333  0.50000  1.0000
  X   X722      1.0  0.90370  0.14074  0.50000  1.0000
  C   C1732     1.0  0.88889  0.15556  0.50000  1.0000
  N   N1162     1.0  0.90370  0.16296  0.50000  1.0000
  C   C1733     1.0  0.88889  0.17778  0.50000  1.0000
  C   C1734     1.0  0.90370  0.18519  0.50000  1.0000
  C   C1735     1.0  0.88889  0.20000  0.50000  1.0000
  C   C1736     1.0  0.90370  0.20741  0.50000  1.0000
  C   C1737     1.0  0.88889  0.22222  0.50000  1.0000
  N   N1163     1.0  0.90370  0.22963  0.50000  1.0000
  N   N1164     1.0  0.88889  0.24444  0.50000  1.0000
  X   X723      1.0  0.90370  0.25185  0.50000  1.0000
  N   N1165     1.0  0.88889  0.26667  0.50000  1.0000
  C   C1738     1.0  0.90370  0.27407  0.50000  1.0000
  N   N1166     1.0  0.88889  0.28889  0.50000  1.0000
  C   C1739     1.0  0.90370  0.29630  0.50000  1.0000
  N   N1167     1.0  0.88889  0.31111  0.50000  1.0000
  X   X724      1.0  0.90370  0.31852  0.50000  1.0000
  N   N1168     1.0  0.88889  0.33333  0.50000  1.0000
  N   N1169     1.0  0.90370  0.34074  0.50000  1.0000
  C   C1740     1.0  0.88889  0.35556  0.50000  1.0000
  C   C1741     1.0  0.90370  0.36296  0.50000  1.0000
  X   X725      1.0  0.88889  0.37778  0.50000  1.0000
  N   N1170     1.0  0.90370  0.38519  0.50000  1.0000
  N   N1171     1.0  0.88889  0.40000  0.50000  1.0000
  C   C1742     1.0  0.90370  0.40741  0.50000  1.0000
  X   X726      1.0  0.88889  0.42222  0.50000  1.0000
  X   X727      1.0  0.90370  0.42963  0.50000  1.0000
  N   N1172     1.0  0.88889  0.44444  0.50000  1.0000
  C   C1743     1.0  0.90370  0.45185  0.50000  1.0000
  N   N1173     1.0  0.88889  0.46667  0.50000  1.0000
  C   C1744     1.0  0.90370  0.47407  0.50000  1.0000
  N   N1174     1.0  0.88889  0.48889  0.50000  1.0000
  X   X728      1.0  0.90370  0.49630  0.50000  1.0000
  C   C1745     1.0  0.88889  0.51111  0.50000  1.0000
  N   N1175     1.0  0.90370  0.51852  0.50000  1.0000
  N   N1176     1.0  0.88889  0.53333  0.50000  1.0000
  C   C1746     1.0  0.90370  0.54074  0.50000  1.0000
  X   X729      1.0  0.88889  0.55556  0.50000  1.0000
  N   N1177     1.0  0.90370  0.56296  0.50000  1.0000
  C   C1747     1.0  0.88889  0.57778  0.50000  1.0000
  C   C1748     1.0  0.90370  0.58519  0.50000  1.0000
  C   C1749     1.0  0.88889  0.60000  0.50000  1.0000
  C   C1750     1.0  0.90370  0.60741  0.50000  1.0000
  X   X730      1.0  0.88889  0.62222  0.50000  1.0000
  X   X731      1.0  0.90370  0.62963  0.50000  1.0000
  C   C1751     1.0  0.88889  0.64444  0.50000  1.0000
  C   C1752     1.0  0.90370  0.65185  0.50000  1.0000
  X   X732      1.0  0.88889  0.66667  0.50000  1.0000
  X   X733      1.0  0.90370  0.67407  0.50000  1.0000
  N   N1178     1.0  0.88889  0.68889  0.50000  1.0000
  C   C1753     1.0  0.90370  0.69630  0.50000  1.0000
  X   X734      1.0  0.88889  0.71111  0.50000  1.0000
  N   N1179     1.0  0.90370  0.71852  0.50000  1.0000
  C   C1754     1.0  0.88889  0.73333  0.50000  1.0000
  C   C1755     1.0  0.90370  0.74074  0.50000  1.0000
  C   C1756     1.0  0.88889  0.75556  0.50000  1.0000
  C   C1757     1.0  0.90370  0.76296  0.50000  1.0000
  X   X735      1.0  0.88889  0.77778  0.50000  1.0000
  N   N1180     1.0  0.90370  0.78519  0.50000  1.0000
  N   N1181     1.0  0.88889  0.80000  0.50000  1.0000
  N   N1182     1.0  0.90370  0.80741  0.50000  1.0000
  N   N1183     1.0  0.88889  0.82222  0.50000  1.0000
  X   X736      1.0  0.90370  0.82963  0.50000  1.0000
  X   X737      1.0  0.88889  0.84444  0.50000  1.0000
  N   N1184     1.0  0.90370  0.85185  0.50000  1.0000
  N   N1185     1.0  0.88889  0.86667  0.50000  1.0000
  X   X738      1.0  0.90370  0.87407  0.50000  1.0000
  X   X739      1.0  0.88889  0.88889  0.50000  1.0000
  N   N1186     1.0  0.90370  0.89630  0.50000  1.0000
  N   N1187     1.0  0.88889  0.91111  0.50000  1.0000
  C   C1758     1.0  0.90370  0.91852  0.50000  1.0000
  C   C1759     1.0  0.88889  0.93333  0.50000  1.0000
  C   C1760     1.0  0.90370  0.94074  0.50000  1.0000
  N   N1188     1.0  0.88889  0.95556  0.50000  1.0000
  C   C1761     1.0  0.90370  0.96296  0.50000  1.0000
  X   X740      1.0  0.88889  0.97778  0.50000  1.0000
  N   N1189     1.0  0.90370  0.98519  0.50000  1.0000
  N   N1190     1.0  0.91111  0.00000  0.50000  1.0000
  X   X741      1.0  0.92593  0.00741  0.50000  1.0000
  C   C1762     1.0  0.91111  0.02222  0.50000  1.0000
  N   N1191     1.0  0.92593  0.02963  0.50000  1.0000
  C   C1763     1.0  0.91111  0.04444  0.50000  1.0000
  N   N1192     1.0  0.92593  0.05185  0.50000  1.0000
  C   C1764     1.0  0.91111  0.06667  0.50000  1.0000
  N   N1193     1.0  0.92593  0.07407  0.50000  1.0000
  N   N1194     1.0  0.91111  0.08889  0.50000  1.0000
  C   C1765     1.0  0.92593  0.09630  0.50000  1.0000
  N   N1195     1.0  0.91111  0.11111  0.50000  1.0000
  C   C1766     1.0  0.92593  0.11852  0.50000  1.0000
  N   N1196     1.0  0.91111  0.13333  0.50000  1.0000
  X   X742      1.0  0.92593  0.14074  0.50000  1.0000
  X   X743      1.0  0.91111  0.15556  0.50000  1.0000
  N   N1197     1.0  0.92593  0.16296  0.50000  1.0000
  C   C1767     1.0  0.91111  0.17778  0.50000  1.0000
  C   C1768     1.0  0.92593  0.18519  0.50000  1.0000
  C   C1769     1.0  0.91111  0.20000  0.50000  1.0000
  C   C1770     1.0  0.92593  0.20741  0.50000  1.0000
  N   N1198     1.0  0.91111  0.22222  0.50000  1.0000
  X   X744      1.0  0.92593  0.22963  0.50000  1.0000
  X   X745      1.0  0.91111  0.24444  0.50000  1.0000
  N   N1199     1.0  0.92593  0.25185  0.50000  1.0000
  N   N1200     1.0  0.91111  0.26667  0.50000  1.0000
  C   C1771     1.0  0.92593  0.27407  0.50000  1.0000
  C   C1772     1.0  0.91111  0.28889  0.50000  1.0000
  N   N1201     1.0  0.92593  0.29630  0.50000  1.0000
  N   N1202     1.0  0.91111  0.31111  0.50000  1.0000
  N   N1203     1.0  0.92593  0.31852  0.50000  1.0000
  X   X746      1.0  0.91111  0.33333  0.50000  1.0000
  N   N1204     1.0  0.92593  0.34074  0.50000  1.0000
  C   C1773     1.0  0.91111  0.35556  0.50000  1.0000
  C   C1774     1.0  0.92593  0.36296  0.50000  1.0000
  C   C1775     1.0  0.91111  0.37778  0.50000  1.0000
  C   C1776     1.0  0.92593  0.38519  0.50000  1.0000
  C   C1777     1.0  0.91111  0.40000  0.50000  1.0000
  C   C1778     1.0  0.92593  0.40741  0.50000  1.0000
  N   N1205     1.0  0.91111  0.42222  0.50000  1.0000
  C   C1779     1.0  0.92593  0.42963  0.50000  1.0000
  N   N1206     1.0  0.91111  0.44444  0.50000  1.0000
  C   C1780     1.0  0.92593  0.45185  0.50000  1.0000
  C   C1781     1.0  0.91111  0.46667  0.50000  1.0000
  C   C1782     1.0  0.92593  0.47407  0.50000  1.0000
  N   N1207     1.0  0.91111  0.48889  0.50000  1.0000
  X   X747      1.0  0.92593  0.49630  0.50000  1.0000
  X   X748      1.0  0.91111  0.51111  0.50000  1.0000
  N   N1208     1.0  0.92593  0.51852  0.50000  1.0000
  C   C1783     1.0  0.91111  0.53333  0.50000  1.0000
  C   C1784     1.0  0.92593  0.54074  0.50000  1.0000
  C   C1785     1.0  0.91111  0.55556  0.50000  1.0000
  C   C1786     1.0  0.92593  0.56296  0.50000  1.0000
  C   C1787     1.0  0.91111  0.57778  0.50000  1.0000
  C   C1788     1.0  0.92593  0.58519  0.50000  1.0000
  C   C1789     1.0  0.91111  0.60000  0.50000  1.0000
  C   C1790     1.0  0.92593  0.60741  0.50000  1.0000
  N   N1209     1.0  0.91111  0.62222  0.50000  1.0000
  N   N1210     1.0  0.92593  0.62963  0.50000  1.0000
  N   N1211     1.0  0.91111  0.64444  0.50000  1.0000
  X   X749      1.0  0.92593  0.65185  0.50000  1.0000
  N   N1212     1.0  0.91111  0.66667  0.50000  1.0000
  C   C1791     1.0  0.92593  0.67407  0.50000  1.0000
  N   N1213     1.0  0.91111  0.68889  0.50000  1.0000
  C   C1792     1.0  0.92593  0.69630  0.50000  1.0000
  C   C1793     1.0  0.91111  0.71111  0.50000  1.0000
  C   C1794     1.0  0.92593  0.71852  0.50000  1.0000
  C   C1795     1.0  0.91111  0.73333  0.50000  1.0000
  C   C1796     1.0  0.92593  0.74074  0.50000  1.0000
  C   C1797     1.0  0.91111  0.75556  0.50000  1.0000
  N   N1214     1.0  0.92593  0.76296  0.50000  1.0000
  C   C1798     1.0  0.91111  0.77778  0.50000  1.0000
  N   N1215     1.0  0.92593  0.78519  0.50000  1.0000
  C   C1799     1.0  0.91111  0.80000  0.50000  1.0000
  C   C1800     1.0  0.92593  0.80741  0.50000  1.0000
  X   X750      1.0  0.91111  0.82222  0.50000  1.0000
  N   N1216     1.0  0.92593  0.82963  0.50000  1.0000
  N   N1217     1.0  0.91111  0.84444  0.50000  1.0000
  N   N1218     1.0  0.92593  0.85185  0.50000  1.0000
  N   N1219     1.0  0.91111  0.86667  0.50000  1.0000
  X   X751      1.0  0.92593  0.87407  0.50000  1.0000
  X   X752      1.0  0.91111  0.88889  0.50000  1.0000
  N   N1220     1.0  0.92593  0.89630  0.50000  1.0000
  C   C1801     1.0  0.91111  0.91111  0.50000  1.0000
  N   N1221     1.0  0.92593  0.91852  0.50000  1.0000
  C   C1802     1.0  0.91111  0.93333  0.50000  1.0000
  C   C1803     1.0  0.92593  0.94074  0.50000  1.0000
  N   N1222     1.0  0.91111  0.95556  0.50000  1.0000
  X   X753      1.0  0.92593  0.96296  0.50000  1.0000
  C   C1804     1.0  0.91111  0.97778  0.50000  1.0000
  N   N1223     1.0  0.92593  0.98519  0.50000  1.0000
  N   N1224     1.0  0.93333  0.00000  0.50000  1.0000
  C   C1805     1.0  0.94815  0.00741  0.50000  1.0000
  X   X754      1.0  0.93333  0.02222  0.50000  1.0000
  N   N1225     1.0  0.94815  0.02963  0.50000  1.0000
  N   N1226     1.0  0.93333  0.04444  0.50000  1.0000
  X   X755      1.0  0.94815  0.05185  0.50000  1.0000
  X   X756      1.0  0.93333  0.06667  0.50000  1.0000
  X   X757      1.0  0.94815  0.07407  0.50000  1.0000
  C   C1806     1.0  0.93333  0.08889  0.50000  1.0000
  C   C1807     1.0  0.94815  0.09630  0.50000  1.0000
  C   C1808     1.0  0.93333  0.11111  0.50000  1.0000
  C   C1809     1.0  0.94815  0.11852  0.50000  1.0000
  N   N1227     1.0  0.93333  0.13333  0.50000  1.0000
  C   C1810     1.0  0.94815  0.14074  0.50000  1.0000
  X   X758      1.0  0.93333  0.15556  0.50000  1.0000
  N   N1228     1.0  0.94815  0.16296  0.50000  1.0000
  N   N1229     1.0  0.93333  0.17778  0.50000  1.0000
  X   X759      1.0  0.94815  0.18519  0.50000  1.0000
  C   C1811     1.0  0.93333  0.20000  0.50000  1.0000
  N   N1230     1.0  0.94815  0.20741  0.50000  1.0000
  N   N1231     1.0  0.93333  0.22222  0.50000  1.0000
  C   C1812     1.0  0.94815  0.22963  0.50000  1.0000
  X   X760      1.0  0.93333  0.24444  0.50000  1.0000
  N   N1232     1.0  0.94815  0.25185  0.50000  1.0000
  C   C1813     1.0  0.93333  0.26667  0.50000  1.0000
  N   N1233     1.0  0.94815  0.27407  0.50000  1.0000
  C   C1814     1.0  0.93333  0.28889  0.50000  1.0000
  N   N1234     1.0  0.94815  0.29630  0.50000  1.0000
  X   X761      1.0  0.93333  0.31111  0.50000  1.0000
  X   X762      1.0  0.94815  0.31852  0.50000  1.0000
  C   C1815     1.0  0.93333  0.33333  0.50000  1.0000
  C   C1816     1.0  0.94815  0.34074  0.50000  1.0000
  C   C1817     1.0  0.93333  0.35556  0.50000  1.0000
  C   C1818     1.0  0.94815  0.36296  0.50000  1.0000
  C   C1819     1.0  0.93333  0.37778  0.50000  1.0000
  N   N1235     1.0  0.94815  0.38519  0.50000  1.0000
  N   N1236     1.0  0.93333  0.40000  0.50000  1.0000
  X   X763      1.0  0.94815  0.40741  0.50000  1.0000
  C   C1820     1.0  0.93333  0.42222  0.50000  1.0000
  C   C1821     1.0  0.94815  0.42963  0.50000  1.0000
  C   C1822     1.0  0.93333  0.44444  0.50000  1.0000
  C   C1823     1.0  0.94815  0.45185  0.50000  1.0000
  C   C1824     1.0  0.93333  0.46667  0.50000  1.0000
  C   C1825     1.0  0.94815  0.47407  0.50000  1.0000
  N   N1237     1.0  0.93333  0.48889  0.50000  1.0000
  C   C1826     1.0  0.94815  0.49630  0.50000  1.0000
  X   X764      1.0  0.93333  0.51111  0.50000  1.0000
  N   N1238     1.0  0.94815  0.51852  0.50000  1.0000
  C   C1827     1.0  0.93333  0.53333  0.50000  1.0000
  C   C1828     1.0  0.94815  0.54074  0.50000  1.0000
  C   C1829     1.0  0.93333  0.55556  0.50000  1.0000
  C   C1830     1.0  0.94815  0.56296  0.50000  1.0000
  C   C1831     1.0  0.93333  0.57778  0.50000  1.0000
  N   N1239     1.0  0.94815  0.58519  0.50000  1.0000
  N   N1240     1.0  0.93333  0.60000  0.50000  1.0000
  X   X765      1.0  0.94815  0.60741  0.50000  1.0000
  C   C1832     1.0  0.93333  0.62222  0.50000  1.0000
  C   C1833     1.0  0.94815  0.62963  0.50000  1.0000
  X   X766      1.0  0.93333  0.64444  0.50000  1.0000
  N   N1241     1.0  0.94815  0.65185  0.50000  1.0000
  N   N1242     1.0  0.93333  0.66667  0.50000  1.0000
  C   C1834     1.0  0.94815  0.67407  0.50000  1.0000
  C   C1835     1.0  0.93333  0.68889  0.50000  1.0000
  C   C1836     1.0  0.94815  0.69630  0.50000  1.0000
  C   C1837     1.0  0.93333  0.71111  0.50000  1.0000
  C   C1838     1.0  0.94815  0.71852  0.50000  1.0000
  C   C1839     1.0  0.93333  0.73333  0.50000  1.0000
  C   C1840     1.0  0.94815  0.74074  0.50000  1.0000
  C   C1841     1.0  0.93333  0.75556  0.50000  1.0000
  C   C1842     1.0  0.94815  0.76296  0.50000  1.0000
  X   X767      1.0  0.93333  0.77778  0.50000  1.0000
  X   X768      1.0  0.94815  0.78519  0.50000  1.0000
  N   N1243     1.0  0.93333  0.80000  0.50000  1.0000
  X   X769      1.0  0.94815  0.80741  0.50000  1.0000
  C   C1843     1.0  0.93333  0.82222  0.50000  1.0000
  N   N1244     1.0  0.94815  0.82963  0.50000  1.0000
  C   C1844     1.0  0.93333  0.84444  0.50000  1.0000
  C   C1845     1.0  0.94815  0.85185  0.50000  1.0000
  X   X770      1.0  0.93333  0.86667  0.50000  1.0000
  N   N1245     1.0  0.94815  0.87407  0.50000  1.0000
  N   N1246     1.0  0.93333  0.88889  0.50000  1.0000
  C   C1846     1.0  0.94815  0.89630  0.50000  1.0000
  X   X771      1.0  0.93333  0.91111  0.50000  1.0000
  X   X772      1.0  0.94815  0.91852  0.50000  1.0000
  C   C1847     1.0  0.93333  0.93333  0.50000  1.0000
  C   C1848     1.0  0.94815  0.94074  0.50000  1.0000
  N   N1247     1.0  0.93333  0.95556  0.50000  1.0000
  C   C1849     1.0  0.94815  0.96296  0.50000  1.0000
  X   X773      1.0  0.93333  0.97778  0.50000  1.0000
  N   N1248     1.0  0.94815  0.98519  0.50000  1.0000
  C   C1850     1.0  0.95556  0.00000  0.50000  1.0000
  C   C1851     1.0  0.97037  0.00741  0.50000  1.0000
  N   N1249     1.0  0.95556  0.02222  0.50000  1.0000
  X   X774      1.0  0.97037  0.02963  0.50000  1.0000
  X   X775      1.0  0.95556  0.04444  0.50000  1.0000
  N   N1250     1.0  0.97037  0.05185  0.50000  1.0000
  N   N1251     1.0  0.95556  0.06667  0.50000  1.0000
  C   C1852     1.0  0.97037  0.07407  0.50000  1.0000
  N   N1252     1.0  0.95556  0.08889  0.50000  1.0000
  C   C1853     1.0  0.97037  0.09630  0.50000  1.0000
  N   N1253     1.0  0.95556  0.11111  0.50000  1.0000
  X   X776      1.0  0.97037  0.11852  0.50000  1.0000
  C   C1854     1.0  0.95556  0.13333  0.50000  1.0000
  N   N1254     1.0  0.97037  0.14074  0.50000  1.0000
  C   C1855     1.0  0.95556  0.15556  0.50000  1.0000
  C   C1856     1.0  0.97037  0.16296  0.50000  1.0000
  N   N1255     1.0  0.95556  0.17778  0.50000  1.0000
  C   C1857     1.0  0.97037  0.18519  0.50000  1.0000
  X   X777      1.0  0.95556  0.20000  0.50000  1.0000
  N   N1256     1.0  0.97037  0.20741  0.50000  1.0000
  C   C1858     1.0  0.95556  0.22222  0.50000  1.0000
  C   C1859     1.0  0.97037  0.22963  0.50000  1.0000
  C   C1860     1.0  0.95556  0.24444  0.50000  1.0000
  C   C1861     1.0  0.97037  0.25185  0.50000  1.0000
  C   C1862     1.0  0.95556  0.26667  0.50000  1.0000
  C   C1863     1.0  0.97037  0.27407  0.50000  1.0000
  X   X778      1.0  0.95556  0.28889  0.50000  1.0000
  X   X779      1.0  0.97037  0.29630  0.50000  1.0000
  N   N1257     1.0  0.95556  0.31111  0.50000  1.0000
  X   X780      1.0  0.97037  0.31852  0.50000  1.0000
  N   N1258     1.0  0.95556  0.33333  0.50000  1.0000
  N   N1259     1.0  0.97037  0.34074  0.50000  1.0000
  C   C1864     1.0  0.95556  0.35556  0.50000  1.0000
  C   C1865     1.0  0.97037  0.36296  0.50000  1.0000
  N   N1260     1.0  0.95556  0.37778  0.50000  1.0000
  X   X781      1.0  0.97037  0.38519  0.50000  1.0000
  X   X782      1.0  0.95556  0.40000  0.50000  1.0000
  N   N1261     1.0  0.97037  0.40741  0.50000  1.0000
  N   N1262     1.0  0.95556  0.42222  0.50000  1.0000
  C   C1866     1.0  0.97037  0.42963  0.50000  1.0000
  N   N1263     1.0  0.95556  0.44444  0.50000  1.0000
  X   X783      1.0  0.97037  0.45185  0.50000  1.0000
  C   C1867     1.0  0.95556  0.46667  0.50000  1.0000
  N   N1264     1.0  0.97037  0.47407  0.50000  1.0000
  N   N1265     1.0  0.95556  0.48889  0.50000  1.0000
  X   X784      1.0  0.97037  0.49630  0.50000  1.0000
  C   C1868     1.0  0.95556  0.51111  0.50000  1.0000
  C   C1869     1.0  0.97037  0.51852  0.50000  1.0000
  C   C1870     1.0  0.95556  0.53333  0.50000  1.0000
  C   C1871     1.0  0.97037  0.54074  0.50000  1.0000
  C   C1872     1.0  0.95556  0.55556  0.50000  1.0000
  C   C1873     1.0  0.97037  0.56296  0.50000  1.0000
  C   C1874     1.0  0.95556  0.57778  0.50000  1.0000
  C   C1875     1.0  0.97037  0.58519  0.50000  1.0000
  X   X785      1.0  0.95556  0.60000  0.50000  1.0000
  N   N1266     1.0  0.97037  0.60741  0.50000  1.0000
  N   N1267     1.0  0.95556  0.62222  0.50000  1.0000
  X   X786      1.0  0.97037  0.62963  0.50000  1.0000
  C   C1876     1.0  0.95556  0.64444  0.50000  1.0000
  N   N1268     1.0  0.97037  0.65185  0.50000  1.0000
  N   N1269     1.0  0.95556  0.66667  0.50000  1.0000
  X   X787      1.0  0.97037  0.67407  0.50000  1.0000
  C   C1877     1.0  0.95556  0.68889  0.50000  1.0000
  N   N1270     1.0  0.97037  0.69630  0.50000  1.0000
  N   N1271     1.0  0.95556  0.71111  0.50000  1.0000
  X   X788      1.0  0.97037  0.71852  0.50000  1.0000
  C   C1878     1.0  0.95556  0.73333  0.50000  1.0000
  N   N1272     1.0  0.97037  0.74074  0.50000  1.0000
  C   C1879     1.0  0.95556  0.75556  0.50000  1.0000
  C   C1880     1.0  0.97037  0.76296  0.50000  1.0000
  N   N1273     1.0  0.95556  0.77778  0.50000  1.0000
  C   C1881     1.0  0.97037  0.78519  0.50000  1.0000
  N   N1274     1.0  0.95556  0.80000  0.50000  1.0000
  C   C1882     1.0  0.97037  0.80741  0.50000  1.0000
  X   X789      1.0  0.95556  0.82222  0.50000  1.0000
  N   N1275     1.0  0.97037  0.82963  0.50000  1.0000
  C   C1883     1.0  0.95556  0.84444  0.50000  1.0000
  C   C1884     1.0  0.97037  0.85185  0.50000  1.0000
  C   C1885     1.0  0.95556  0.86667  0.50000  1.0000
  C   C1886     1.0  0.97037  0.87407  0.50000  1.0000
  C   C1887     1.0  0.95556  0.88889  0.50000  1.0000
  C   C1888     1.0  0.97037  0.89630  0.50000  1.0000
  N   N1276     1.0  0.95556  0.91111  0.50000  1.0000
  C   C1889     1.0  0.97037  0.91852  0.50000  1.0000
  N   N1277     1.0  0.95556  0.93333  0.50000  1.0000
  C   C1890     1.0  0.97037  0.94074  0.50000  1.0000
  N   N1278     1.0  0.95556  0.95556  0.50000  1.0000
  X   X790      1.0  0.97037  0.96296  0.50000  1.0000
  C   C1891     1.0  0.95556  0.97778  0.50000  1.0000
  N   N1279     1.0  0.97037  0.98519  0.50000  1.0000
  C   C1892     1.0  0.97778  0.00000  0.50000  1.0000
  C   C1893     1.0  0.99259  0.00741  0.50000  1.0000
  N   N1280     1.0  0.97778  0.02222  0.50000  1.0000
  C   C1894     1.0  0.99259  0.02963  0.50000  1.0000
  X   X791      1.0  0.97778  0.04444  0.50000  1.0000
  N   N1281     1.0  0.99259  0.05185  0.50000  1.0000
  C   C1895     1.0  0.97778  0.06667  0.50000  1.0000
  C   C1896     1.0  0.99259  0.07407  0.50000  1.0000
  C   C1897     1.0  0.97778  0.08889  0.50000  1.0000
  C   C1898     1.0  0.99259  0.09630  0.50000  1.0000
  N   N1282     1.0  0.97778  0.11111  0.50000  1.0000
  C   C1899     1.0  0.99259  0.11852  0.50000  1.0000
  X   X792      1.0  0.97778  0.13333  0.50000  1.0000
  N   N1283     1.0  0.99259  0.14074  0.50000  1.0000
  C   C1900     1.0  0.97778  0.15556  0.50000  1.0000
  C   C1901     1.0  0.99259  0.16296  0.50000  1.0000
  C   C1902     1.0  0.97778  0.17778  0.50000  1.0000
  C   C1903     1.0  0.99259  0.18519  0.50000  1.0000
  C   C1904     1.0  0.97778  0.20000  0.50000  1.0000
  C   C1905     1.0  0.99259  0.20741  0.50000  1.0000
  C   C1906     1.0  0.97778  0.22222  0.50000  1.0000
  C   C1907     1.0  0.99259  0.22963  0.50000  1.0000
  C   C1908     1.0  0.97778  0.24444  0.50000  1.0000
  C   C1909     1.0  0.99259  0.25185  0.50000  1.0000
  C   C1910     1.0  0.97778  0.26667  0.50000  1.0000
  C   C1911     1.0  0.99259  0.27407  0.50000  1.0000
  N   N1284     1.0  0.97778  0.28889  0.50000  1.0000
  C   C1912     1.0  0.99259  0.29630  0.50000  1.0000
  N   N1285     1.0  0.97778  0.31111  0.50000  1.0000
  C   C1913     1.0  0.99259  0.31852  0.50000  1.0000
  X   X793      1.0  0.97778  0.33333  0.50000  1.0000
  N   N1286     1.0  0.99259  0.34074  0.50000  1.0000
  C   C1914     1.0  0.97778  0.35556  0.50000  1.0000
  C   C1915     1.0  0.99259  0.36296  0.50000  1.0000
  N   N1287     1.0  0.97778  0.37778  0.50000  1.0000
  C   C1916     1.0  0.99259  0.38519  0.50000  1.0000
  X   X794      1.0  0.97778  0.40000  0.50000  1.0000
  N   N1288     1.0  0.99259  0.40741  0.50000  1.0000
  C   C1917     1.0  0.97778  0.42222  0.50000  1.0000
  C   C1918     1.0  0.99259  0.42963  0.50000  1.0000
  N   N1289     1.0  0.97778  0.44444  0.50000  1.0000
  C   C1919     1.0  0.99259  0.45185  0.50000  1.0000
  X   X795      1.0  0.97778  0.46667  0.50000  1.0000
  N   N1290     1.0  0.99259  0.47407  0.50000  1.0000
  X   X796      1.0  0.97778  0.48889  0.50000  1.0000
  N   N1291     1.0  0.99259  0.49630  0.50000  1.0000
  N   N1292     1.0  0.97778  0.51111  0.50000  1.0000
  C   C1920     1.0  0.99259  0.51852  0.50000  1.0000
  C   C1921     1.0  0.97778  0.53333  0.50000  1.0000
  C   C1922     1.0  0.99259  0.54074  0.50000  1.0000
  C   C1923     1.0  0.97778  0.55556  0.50000  1.0000
  C   C1924     1.0  0.99259  0.56296  0.50000  1.0000
  C   C1925     1.0  0.97778  0.57778  0.50000  1.0000
  C   C1926     1.0  0.99259  0.58519  0.50000  1.0000
  C   C1927     1.0  0.97778  0.60000  0.50000  1.0000
  C   C1928     1.0  0.99259  0.60741  0.50000  1.0000
  N   N1293     1.0  0.97778  0.62222  0.50000  1.0000
  C   C1929     1.0  0.99259  0.62963  0.50000  1.0000
  X   X797      1.0  0.97778  0.64444  0.50000  1.0000
  N   N1294     1.0  0.99259  0.65185  0.50000  1.0000
  N   N1295     1.0  0.97778  0.66667  0.50000  1.0000
  C   C1930     1.0  0.99259  0.67407  0.50000  1.0000
  X   X798      1.0  0.97778  0.68889  0.50000  1.0000
  N   N1296     1.0  0.99259  0.69630  0.50000  1.0000
  N   N1297     1.0  0.97778  0.71111  0.50000  1.0000
  C   C1931     1.0  0.99259  0.71852  0.50000  1.0000
  X   X799      1.0  0.97778  0.73333  0.50000  1.0000
  N   N1298     1.0  0.99259  0.74074  0.50000  1.0000
  C   C1932     1.0  0.97778  0.75556  0.50000  1.0000
  C   C1933     1.0  0.99259  0.76296  0.50000  1.0000
  C   C1934     1.0  0.97778  0.77778  0.50000  1.0000
  C   C1935     1.0  0.99259  0.78519  0.50000  1.0000
  C   C1936     1.0  0.97778  0.80000  0.50000  1.0000
  C   C1937     1.0  0.99259  0.80741  0.50000  1.0000
  C   C1938     1.0  0.97778  0.82222  0.50000  1.0000
  C   C1939     1.0  0.99259  0.82963  0.50000  1.0000
  C   C1940     1.0  0.97778  0.84444  0.50000  1.0000
  C   C1941     1.0  0.99259  0.85185  0.50000  1.0000
  C   C1942     1.0  0.97778  0.86667  0.50000  1.0000
  C   C1943     1.0  0.99259  0.87407  0.50000  1.0000
  C   C1944     1.0  0.97778  0.88889  0.50000  1.0000
  C   C1945     1.0  0.99259  0.89630  0.50000  1.0000
  C   C1946     1.0  0.97778  0.91111  0.50000  1.0000
  C   C1947     1.0  0.99259  0.91852  0.50000  1.0000
  C   C1948     1.0  0.97778  0.93333  0.50000  1.0000
  C   C1949     1.0  0.99259  0.94074  0.50000  1.0000
  N   N1299     1.0  0.97778  0.95556  0.50000  1.0000
  C   C1950     1.0  0.99259  0.96296  0.50000  1.0000
  X   X800      1.0  0.97778  0.97778  0.50000  1.0000
  N   N1300     1.0  0.99259  0.98519  0.50000  1.0000
  Fe  Fe1       1.0  0.21852  0.58148  0.50000  1.0000
  Fe  Fe2       1.0  0.69630  0.33704  0.50000  1.0000
  Fe  Fe3       1.0  0.31852  0.04815  0.50000  1.0000
  Fe  Fe4       1.0  0.46296  0.15926  0.50000  1.0000
  Fe  Fe5       1.0  0.35185  0.23704  0.50000  1.0000
  Ni  Ni1       1.0  0.21852  0.02593  0.50000  1.0000
  Fe  Fe6       1.0  0.39630  0.01481  0.50000  1.0000
  Ni  Ni2       1.0  0.84074  0.29259  0.50000  1.0000
  Fe  Fe7       1.0  0.71852  0.02593  0.50000  1.0000
  Ni  Ni3       1.0  0.18519  0.13704  0.50000  1.0000
  Fe  Fe8       1.0  0.44074  0.84815  0.50000  1.0000
  Ni  Ni4       1.0  0.67407  0.58148  0.50000  1.0000
  Ni  Ni5       1.0  0.10741  0.09259  0.50000  1.0000
  Fe  Fe9       1.0  0.51852  0.04815  0.50000  1.0000
  Fe  Fe10      1.0  0.24074  0.51481  0.50000  1.0000
  Fe  Fe11      1.0  0.97407  0.12593  0.50000  1.0000
  Ni  Ni6       1.0  0.48519  0.97037  0.50000  1.0000
  Ni  Ni7       1.0  0.08519  0.54815  0.50000  1.0000
  Ni  Ni8       1.0  0.55185  0.50370  0.50000  1.0000
  Ni  Ni9       1.0  0.87407  0.44815  0.50000  1.0000
  Fe  Fe12      1.0  0.79630  0.82593  0.50000  1.0000
  Ni  Ni10      1.0  0.61852  0.30370  0.50000  1.0000
  Fe  Fe13      1.0  0.47407  0.89259  0.50000  1.0000
  Fe  Fe14      1.0  0.69630  0.69259  0.50000  1.0000
  Fe  Fe15      1.0  0.07407  0.91481  0.50000  1.0000
  Ni  Ni11      1.0  0.51852  0.11481  0.50000  1.0000
  Ni  Ni12      1.0  0.36296  0.29259  0.50000  1.0000
  Fe  Fe16      1.0  0.01852  0.60370  0.50000  1.0000
  Fe  Fe17      1.0  0.38519  0.09259  0.50000  1.0000
  Fe  Fe18      1.0  0.97407  0.97037  0.50000  1.0000
  Ni  Ni13      1.0  0.75185  0.81481  0.50000  1.0000
  Fe  Fe19      1.0  0.59630  0.47037  0.50000  1.0000
  Fe  Fe20      1.0  0.47407  0.49259  0.50000  1.0000
  Fe  Fe21      1.0  0.71852  0.64815  0.50000  1.0000
  Fe  Fe22      1.0  0.82963  0.87037  0.50000  1.0000
  Fe  Fe23      1.0  0.10741  0.94815  0.50000  1.0000
  Fe  Fe24      1.0  0.26296  0.01481  0.50000  1.0000
  Fe  Fe25      1.0  0.79630  0.01481  0.50000  1.0000
  Fe  Fe26      1.0  0.74074  0.42593  0.50000  1.0000
  Ni  Ni14      1.0  0.64074  0.55926  0.50000  1.0000
  Ni  Ni15      1.0  0.92963  0.23704  0.50000  1.0000
  Fe  Fe27      1.0  0.40741  0.20370  0.50000  1.0000
  Fe  Fe28      1.0  0.67407  0.24815  0.50000  1.0000
  Fe  Fe29      1.0  0.05185  0.60370  0.50000  1.0000
  Fe  Fe30      1.0  0.10741  0.37037  0.50000  1.0000
  Fe  Fe31      1.0  0.19630  0.65926  0.50000  1.0000
  Ni  Ni16      1.0  0.32963  0.58148  0.50000  1.0000
  Ni  Ni17      1.0  0.08519  0.27037  0.50000  1.0000
  Fe  Fe32      1.0  0.89630  0.67037  0.50000  1.0000
  Ni  Ni18      1.0  0.16296  0.07037  0.50000  1.0000
  Fe  Fe33      1.0  0.36296  0.69259  0.50000  1.0000
  Fe  Fe34      1.0  0.77407  0.59259  0.50000  1.0000
  Ni  Ni19      1.0  0.47407  0.69259  0.50000  1.0000
  Ni  Ni20      1.0  0.89630  0.09259  0.50000  1.0000
  Fe  Fe35      1.0  0.19630  0.49259  0.50000  1.0000
  Ni  Ni21      1.0  0.68519  0.75926  0.50000  1.0000
  Ni  Ni22      1.0  0.90741  0.88148  0.50000  1.0000
  Fe  Fe36      1.0  0.19630  0.03704  0.50000  1.0000
  Fe  Fe37      1.0  0.88519  0.38148  0.50000  1.0000
  Ni  Ni23      1.0  0.90741  0.14815  0.50000  1.0000
  Ni  Ni24      1.0  0.74074  0.20370  0.50000  1.0000
  Ni  Ni25      1.0  0.10741  0.24815  0.50000  1.0000
  Fe  Fe38      1.0  0.24074  0.05926  0.50000  1.0000
  Fe  Fe39      1.0  0.57407  0.01481  0.50000  1.0000
  Fe  Fe40      1.0  0.12963  0.59259  0.50000  1.0000
  Fe  Fe41      1.0  0.12963  0.64815  0.50000  1.0000
  Ni  Ni26      1.0  0.86296  0.21481  0.50000  1.0000
  Fe  Fe42      1.0  0.97407  0.45926  0.50000  1.0000
  Ni  Ni27      1.0  0.25185  0.27037  0.50000  1.0000
  Fe  Fe43      1.0  0.82963  0.75926  0.50000  1.0000
  Fe  Fe44      1.0  0.28519  0.60370  0.50000  1.0000
  Fe  Fe45      1.0  0.52963  0.92593  0.50000  1.0000
  Ni  Ni28      1.0  0.25185  0.33704  0.50000  1.0000
  Ni  Ni29      1.0  0.47407  0.93704  0.50000  1.0000
  Fe  Fe46      1.0  0.12963  0.50370  0.50000  1.0000
  Ni  Ni30      1.0  0.26296  0.04815  0.50000  1.0000
  Fe  Fe47      1.0  0.26296  0.80370  0.50000  1.0000
  Fe  Fe48      1.0  0.22963  0.55926  0.50000  1.0000
  Fe  Fe49      1.0  0.42963  0.78148  0.50000  1.0000
  Ni  Ni31      1.0  0.40741  0.53704  0.50000  1.0000
  Fe  Fe50      1.0  0.19630  0.10370  0.50000  1.0000
  Ni  Ni32      1.0  0.04074  0.54815  0.50000  1.0000
  Ni  Ni33      1.0  0.40741  0.91481  0.50000  1.0000
  Fe  Fe51      1.0  0.16296  0.29259  0.50000  1.0000
  Ni  Ni34      1.0  0.76296  0.84815  0.50000  1.0000
  Fe  Fe52      1.0  0.14074  0.20370  0.50000  1.0000
  Fe  Fe53      1.0  0.48519  0.62593  0.50000  1.0000
  Ni  Ni35      1.0  0.60741  0.51481  0.50000  1.0000
  Fe  Fe54      1.0  0.21852  0.61481  0.50000  1.0000
  Fe  Fe55      1.0  0.19630  0.07037  0.50000  1.0000
  Ni  Ni36      1.0  0.64074  0.23704  0.50000  1.0000
  Ni  Ni37      1.0  0.84074  0.25926  0.50000  1.0000
  Ni  Ni38      1.0  0.15185  0.31481  0.50000  1.0000
  Ni  Ni39      1.0  0.29630  0.75926  0.50000  1.0000
  Fe  Fe56      1.0  0.41852  0.42593  0.50000  1.0000
  Ni  Ni40      1.0  0.15185  0.67037  0.50000  1.0000
  Ni  Ni41      1.0  0.34074  0.89259  0.50000  1.0000
  Ni  Ni42      1.0  0.94074  0.31481  0.50000  1.0000
  Ni  Ni43      1.0  0.68519  0.94815  0.50000  1.0000
  Fe  Fe57      1.0  0.86296  0.13704  0.50000  1.0000
  Fe  Fe58      1.0  0.39630  0.30370  0.50000  1.0000
  Ni  Ni44      1.0  0.31852  0.31481  0.50000  1.0000
  Ni  Ni45      1.0  0.60741  0.62593  0.50000  1.0000
  Fe  Fe59      1.0  0.78519  0.38148  0.50000  1.0000
  Ni  Ni46      1.0  0.75185  0.03704  0.50000  1.0000
  Ni  Ni47      1.0  0.04074  0.50370  0.50000  1.0000
  Fe  Fe60      1.0  0.01852  0.87037  0.50000  1.0000
  Ni  Ni48      1.0  0.28519  0.89259  0.50000  1.0000
  Ni  Ni49      1.0  0.89630  0.62593  0.50000  1.0000
  Ni  Ni50      1.0  0.66296  0.39259  0.50000  1.0000
  Fe  Fe61      1.0  0.14074  0.62593  0.50000  1.0000
  Fe  Fe62      1.0  0.84074  0.73704  0.50000  1.0000
  Ni  Ni51      1.0  0.51852  0.87037  0.50000  1.0000
  Fe  Fe63      1.0  0.34074  0.55926  0.50000  1.0000
  Fe  Fe64      1.0  0.79630  0.14815  0.50000  1.0000
  Fe  Fe65      1.0  0.16296  0.78148  0.50000  1.0000
  Ni  Ni52      1.0  0.46296  0.65926  0.50000  1.0000
  Ni  Ni53      1.0  0.88519  0.83704  0.50000  1.0000
  Ni  Ni54      1.0  0.30741  0.37037  0.50000  1.0000
  Fe  Fe66      1.0  0.15185  0.95926  0.50000  1.0000
  Ni  Ni55      1.0  0.84074  0.67037  0.50000  1.0000
  Ni  Ni56      1.0  0.09630  0.80370  0.50000  1.0000
  Fe  Fe67      1.0  0.42963  0.67037  0.50000  1.0000
  Fe  Fe68      1.0  0.48519  0.53704  0.50000  1.0000
  Ni  Ni57      1.0  0.86296  0.05926  0.50000  1.0000
  Ni  Ni58      1.0  0.17407  0.75926  0.50000  1.0000
  Fe  Fe69      1.0  0.60741  0.60370  0.50000  1.0000
  Fe  Fe70      1.0  0.26296  0.77037  0.50000  1.0000
  Ni  Ni59      1.0  0.19630  0.43704  0.50000  1.0000
  Fe  Fe71      1.0  0.97407  0.63704  0.50000  1.0000
  Ni  Ni60      1.0  0.30741  0.50370  0.50000  1.0000
  Fe  Fe72      1.0  0.55185  0.19259  0.50000  1.0000
  Fe  Fe73      1.0  0.39630  0.75926  0.50000  1.0000
  Ni  Ni61      1.0  0.75185  0.64815  0.50000  1.0000
  Ni  Ni62      1.0  0.94074  0.91481  0.50000  1.0000
  Fe  Fe74      1.0  0.01852  0.31481  0.50000  1.0000
  Ni  Ni63      1.0  0.55185  0.41481  0.50000  1.0000
  Fe  Fe75      1.0  0.72963  0.10370  0.50000  1.0000
  Ni  Ni64      1.0  0.50741  0.72593  0.50000  1.0000
  Ni  Ni65      1.0  0.71852  0.55926  0.50000  1.0000
  Ni  Ni66      1.0  0.84074  0.94815  0.50000  1.0000
  Fe  Fe76      1.0  0.92963  0.87037  0.50000  1.0000
  Ni  Ni67      1.0  0.26296  0.37037  0.50000  1.0000
  Ni  Ni68      1.0  0.67407  0.18148  0.50000  1.0000
  Fe  Fe77      1.0  0.64074  0.74815  0.50000  1.0000
  Fe  Fe78      1.0  0.01852  0.71481  0.50000  1.0000
  Ni  Ni69      1.0  0.68519  0.03704  0.50000  1.0000
  Ni  Ni70      1.0  0.40741  0.07037  0.50000  1.0000
  Ni  Ni71      1.0  0.86296  0.70370  0.50000  1.0000
  Ni  Ni72      1.0  0.24074  0.85926  0.50000  1.0000
  Fe  Fe79      1.0  0.51852  0.49259  0.50000  1.0000
  Ni  Ni73      1.0  0.79630  0.19259  0.50000  1.0000
  Fe  Fe80      1.0  0.57407  0.39259  0.50000  1.0000
  Ni  Ni74      1.0  0.82963  0.82593  0.50000  1.0000
  Fe  Fe81      1.0  0.92963  0.50370  0.50000  1.0000
  Fe  Fe82      1.0  0.79630  0.87037  0.50000  1.0000
  Fe  Fe83      1.0  0.17407  0.35926  0.50000  1.0000
  Fe  Fe84      1.0  0.24074  0.93704  0.50000  1.0000
  Ni  Ni75      1.0  0.66296  0.49259  0.50000  1.0000
  Fe  Fe85      1.0  0.17407  0.17037  0.50000  1.0000
  Ni  Ni76      1.0  0.59630  0.57037  0.50000  1.0000
  Fe  Fe86      1.0  0.37407  0.32593  0.50000  1.0000
  Fe  Fe87      1.0  0.84074  0.39259  0.50000  1.0000
  Fe  Fe88      1.0  0.78519  0.75926  0.50000  1.0000
  Ni  Ni77      1.0  0.29630  0.80370  0.50000  1.0000
  Fe  Fe89      1.0  0.96296  0.29259  0.50000  1.0000
  Ni  Ni78      1.0  0.75185  0.27037  0.50000  1.0000
  Fe  Fe90      1.0  0.90741  0.82593  0.50000  1.0000
  Fe  Fe91      1.0  0.10741  0.54815  0.50000  1.0000
  Ni  Ni79      1.0  0.65185  0.27037  0.50000  1.0000
  Fe  Fe92      1.0  0.32963  0.91481  0.50000  1.0000
  Ni  Ni80      1.0  0.01852  0.64815  0.50000  1.0000
  Fe  Fe93      1.0  0.32963  0.68148  0.50000  1.0000
  Fe  Fe94      1.0  0.67407  0.22593  0.50000  1.0000
  Ni  Ni81      1.0  0.25185  0.67037  0.50000  1.0000
  Ni  Ni82      1.0  0.82963  0.69259  0.50000  1.0000
  Fe  Fe95      1.0  0.89630  0.42593  0.50000  1.0000
  Ni  Ni83      1.0  0.87407  0.31481  0.50000  1.0000
  Ni  Ni84      1.0  0.88519  0.54815  0.50000  1.0000
  Ni  Ni85      1.0  0.15185  0.72593  0.50000  1.0000
  Ni  Ni86      1.0  0.72963  0.34815  0.50000  1.0000
  Ni  Ni87      1.0  0.04074  0.62593  0.50000  1.0000
  Ni  Ni88      1.0  0.04074  0.27037  0.50000  1.0000
  Ni  Ni89      1.0  0.30741  0.44815  0.50000  1.0000
  Ni  Ni90      1.0  0.88519  0.78148  0.50000  1.0000
  Fe  Fe96      1.0  0.79630  0.57037  0.50000  1.0000
  Fe  Fe97      1.0  0.24074  0.41481  0.50000  1.0000
  Ni  Ni91      1.0  0.92963  0.97037  0.50000  1.0000
  Ni  Ni92      1.0  0.05185  0.75926  0.50000  1.0000
  Ni  Ni93      1.0  0.48519  0.11481  0.50000  1.0000
  Fe  Fe98      1.0  0.47407  0.55926  0.50000  1.0000
  Fe  Fe99      1.0  0.75185  0.30370  0.50000  1.0000
  Ni  Ni94      1.0  0.66296  0.33704  0.50000  1.0000
  Fe  Fe100     1.0  0.66296  0.03704  0.50000  1.0000
  Ni  Ni95      1.0  0.70741  0.10370  0.50000  1.0000
  Ni  Ni96      1.0  0.70741  0.82593  0.50000  1.0000
  Ni  Ni97      1.0  0.44074  0.97037  0.50000  1.0000
  Ni  Ni98      1.0  0.81852  0.04815  0.50000  1.0000
  Ni  Ni99      1.0  0.55185  0.44815  0.50000  1.0000
  Fe  Fe101     1.0  0.41852  0.72593  0.50000  1.0000
  Ni  Ni100     1.0  0.34074  0.53704  0.50000  1.0000
  Fe  Fe102     1.0  0.49630  0.82593  0.50000  1.0000
  Ni  Ni101     1.0  0.55185  0.80370  0.50000  1.0000
  Fe  Fe103     1.0  0.95185  0.19259  0.50000  1.0000
  Ni  Ni102     1.0  0.24074  0.22593  0.50000  1.0000
  Fe  Fe104     1.0  0.71852  0.38148  0.50000  1.0000
  Fe  Fe105     1.0  0.97407  0.49259  0.50000  1.0000
  Ni  Ni103     1.0  0.32963  0.41481  0.50000  1.0000
  Ni  Ni104     1.0  0.95185  0.40370  0.50000  1.0000
  Fe  Fe106     1.0  0.09630  0.04815  0.50000  1.0000
  Ni  Ni105     1.0  0.66296  0.67037  0.50000  1.0000
  Fe  Fe107     1.0  0.77407  0.68148  0.50000  1.0000
  Fe  Fe108     1.0  0.72963  0.50370  0.50000  1.0000
  Ni  Ni106     1.0  0.25185  0.69259  0.50000  1.0000
  Ni  Ni107     1.0  0.94074  0.07037  0.50000  1.0000
  Fe  Fe109     1.0  0.41852  0.04815  0.50000  1.0000
  Fe  Fe110     1.0  0.41852  0.88148  0.50000  1.0000
  Fe  Fe111     1.0  0.52963  0.84815  0.50000  1.0000
  Ni  Ni108     1.0  0.81852  0.78148  0.50000  1.0000
  Fe  Fe112     1.0  0.52963  0.37037  0.50000  1.0000
  Fe  Fe113     1.0  0.09630  0.62593  0.50000  1.0000
  Fe  Fe114     1.0  0.78519  0.78148  0.50000  1.0000
  Ni  Ni109     1.0  0.39630  0.48148  0.50000  1.0000
  Ni  Ni110     1.0  0.97407  0.03704  0.50000  1.0000
  Fe  Fe115     1.0  0.75185  0.92593  0.50000  1.0000
  Fe  Fe116     1.0  0.30741  0.87037  0.50000  1.0000
  Ni  Ni111     1.0  0.56296  0.24815  0.50000  1.0000
  Fe  Fe117     1.0  0.48519  0.28148  0.50000  1.0000
  Ni  Ni112     1.0  0.39630  0.88148  0.50000  1.0000
  Ni  Ni113     1.0  0.95185  0.81481  0.50000  1.0000
  Fe  Fe118     1.0  0.37407  0.53704  0.50000  1.0000
  Fe  Fe119     1.0  0.41852  0.17037  0.50000  1.0000
  Fe  Fe120     1.0  0.08519  0.59259  0.50000  1.0000
  Fe  Fe121     1.0  0.26296  0.40370  0.50000  1.0000
  Ni  Ni114     1.0  0.59630  0.24815  0.50000  1.0000
  Ni  Ni115     1.0  0.35185  0.19259  0.50000  1.0000
  Ni  Ni116     1.0  0.62963  0.42593  0.50000  1.0000
  Fe  Fe122     1.0  0.77407  0.21481  0.50000  1.0000
  Ni  Ni117     1.0  0.51852  0.20370  0.50000  1.0000
  Ni  Ni118     1.0  0.09630  0.40370  0.50000  1.0000
  Fe  Fe123     1.0  0.28519  0.01481  0.50000  1.0000
  Ni  Ni119     1.0  0.95185  0.60370  0.50000  1.0000
  Fe  Fe124     1.0  0.82963  0.13704  0.50000  1.0000
  Fe  Fe125     1.0  0.35185  0.62593  0.50000  1.0000
  Ni  Ni120     1.0  0.28519  0.32593  0.50000  1.0000
  Ni  Ni121     1.0  0.12963  0.05926  0.50000  1.0000
  Ni  Ni122     1.0  0.20741  0.22593  0.50000  1.0000
  Ni  Ni123     1.0  0.12963  0.40370  0.50000  1.0000
  Fe  Fe126     1.0  0.08519  0.20370  0.50000  1.0000
  Ni  Ni124     1.0  0.19630  0.54815  0.50000  1.0000
  Fe  Fe127     1.0  0.55185  0.58148  0.50000  1.0000
  Ni  Ni125     1.0  0.85185  0.55926  0.50000  1.0000
  Fe  Fe128     1.0  0.26296  0.84815  0.50000  1.0000
  Fe  Fe129     1.0  0.92963  0.01481  0.50000  1.0000
  Ni  Ni126     1.0  0.29630  0.67037  0.50000  1.0000
  Fe  Fe130     1.0  0.86296  0.93704  0.50000  1.0000
  Ni  Ni127     1.0  0.30741  0.07037  0.50000  1.0000
  Fe  Fe131     1.0  0.39630  0.35926  0.50000  1.0000
  Fe  Fe132     1.0  0.40741  0.82593  0.50000  1.0000
  Ni  Ni128     1.0  0.71852  0.47037  0.50000  1.0000
  Ni  Ni129     1.0  0.66296  0.83704  0.50000  1.0000
  Fe  Fe133     1.0  0.65185  0.11481  0.50000  1.0000
  Fe  Fe134     1.0  0.09630  0.69259  0.50000  1.0000
  Ni  Ni130     1.0  0.90741  0.24815  0.50000  1.0000
  Ni  Ni131     1.0  0.05185  0.95926  0.50000  1.0000
  Ni  Ni132     1.0  0.27407  0.95926  0.50000  1.0000
  Fe  Fe135     1.0  0.12963  0.23704  0.50000  1.0000
  Ni  Ni133     1.0  0.69630  0.29259  0.50000  1.0000
  Ni  Ni134     1.0  0.32963  0.19259  0.50000  1.0000
  Fe  Fe136     1.0  0.67407  0.15926  0.50000  1.0000
  Fe  Fe137     1.0  0.46296  0.28148  0.50000  1.0000
  Fe  Fe138     1.0  0.57407  0.72593  0.50000  1.0000
  Fe  Fe139     1.0  0.55185  0.14815  0.50000  1.0000
  Ni  Ni135     1.0  0.77407  0.49259  0.50000  1.0000
  Ni  Ni136     1.0  0.79630  0.33704  0.50000  1.0000
  Ni  Ni137     1.0  0.55185  0.31481  0.50000  1.0000
  Ni  Ni138     1.0  0.87407  0.27037  0.50000  1.0000
  Ni  Ni139     1.0  0.81852  0.89259  0.50000  1.0000
  Ni  Ni140     1.0  0.10741  0.72593  0.50000  1.0000
  Ni  Ni141     1.0  0.57407  0.69259  0.50000  1.0000
  Ni  Ni142     1.0  0.88519  0.70370  0.50000  1.0000
  Fe  Fe140     1.0  0.40741  0.95926  0.50000  1.0000
  Fe  Fe141     1.0  0.10741  0.90370  0.50000  1.0000
  Fe  Fe142     1.0  0.59630  0.53704  0.50000  1.0000
  Ni  Ni143     1.0  0.85185  0.58148  0.50000  1.0000
  Fe  Fe143     1.0  0.67407  0.89259  0.50000  1.0000
  Fe  Fe144     1.0  0.26296  0.24815  0.50000  1.0000
  Ni  Ni144     1.0  0.49630  0.80370  0.50000  1.0000
  Ni  Ni145     1.0  0.81852  0.40370  0.50000  1.0000
  Fe  Fe145     1.0  0.29630  0.73704  0.50000  1.0000
  Fe  Fe146     1.0  0.66296  0.54815  0.50000  1.0000
  Fe  Fe147     1.0  0.06296  0.54815  0.50000  1.0000
  Fe  Fe148     1.0  0.45185  0.31481  0.50000  1.0000
  Ni  Ni146     1.0  0.48519  0.43704  0.50000  1.0000
  Ni  Ni147     1.0  0.08519  0.37037  0.50000  1.0000
  Fe  Fe149     1.0  0.50741  0.52593  0.50000  1.0000
  Fe  Fe150     1.0  0.70741  0.21481  0.50000  1.0000
  Fe  Fe151     1.0  0.88519  0.97037  0.50000  1.0000
  Fe  Fe152     1.0  0.92963  0.64815  0.50000  1.0000
  Fe  Fe153     1.0  0.41852  0.10370  0.50000  1.0000
  Ni  Ni148     1.0  0.54074  0.33704  0.50000  1.0000
  Fe  Fe154     1.0  0.22963  0.89259  0.50000  1.0000
  Fe  Fe155     1.0  0.64074  0.60370  0.50000  1.0000
  Ni  Ni149     1.0  0.69630  0.49259  0.50000  1.0000
  Ni  Ni150     1.0  0.16296  0.44815  0.50000  1.0000
  Ni  Ni151     1.0  0.61852  0.19259  0.50000  1.0000
  Ni  Ni152     1.0  0.37407  0.73704  0.50000  1.0000
  Ni  Ni153     1.0  0.16296  0.24815  0.50000  1.0000
  Fe  Fe156     1.0  0.71852  0.87037  0.50000  1.0000
  Ni  Ni154     1.0  0.21852  0.09259  0.50000  1.0000
  Ni  Ni155     1.0  0.48519  0.72593  0.50000  1.0000
  Fe  Fe157     1.0  0.48519  0.35926  0.50000  1.0000
  Fe  Fe158     1.0  0.50741  0.92593  0.50000  1.0000
  Fe  Fe159     1.0  0.12963  0.93704  0.50000  1.0000
  Ni  Ni156     1.0  0.08519  0.75926  0.50000  1.0000
  Ni  Ni157     1.0  0.64074  0.63704  0.50000  1.0000
  Fe  Fe160     1.0  0.56296  0.27037  0.50000  1.0000
  Ni  Ni158     1.0  0.69630  0.67037  0.50000  1.0000
  Fe  Fe161     1.0  0.17407  0.82593  0.50000  1.0000
  Ni  Ni159     1.0  0.74074  0.78148  0.50000  1.0000
  Ni  Ni160     1.0  0.01852  0.90370  0.50000  1.0000
  Fe  Fe162     1.0  0.16296  0.93704  0.50000  1.0000
  Fe  Fe163     1.0  0.44074  0.35926  0.50000  1.0000
  Fe  Fe164     1.0  0.72963  0.81481  0.50000  1.0000
  Fe  Fe165     1.0  0.42963  0.64815  0.50000  1.0000
  Ni  Ni161     1.0  0.97407  0.68148  0.50000  1.0000
  Ni  Ni162     1.0  0.94074  0.78148  0.50000  1.0000
  Ni  Ni163     1.0  0.35185  0.71481  0.50000  1.0000
  Fe  Fe166     1.0  0.90741  0.32593  0.50000  1.0000
  Ni  Ni164     1.0  0.56296  0.64815  0.50000  1.0000
  Fe  Fe167     1.0  0.50741  0.17037  0.50000  1.0000
  Fe  Fe168     1.0  0.78519  0.11481  0.50000  1.0000
  Ni  Ni165     1.0  0.30741  0.22593  0.50000  1.0000
  Ni  Ni166     1.0  0.41852  0.30370  0.50000  1.0000
  Fe  Fe169     1.0  0.06296  0.15926  0.50000  1.0000
  Ni  Ni167     1.0  0.61852  0.27037  0.50000  1.0000
  Ni  Ni168     1.0  0.76296  0.13704  0.50000  1.0000
  Fe  Fe170     1.0  0.97407  0.72593  0.50000  1.0000
  Ni  Ni169     1.0  0.22963  0.75926  0.50000  1.0000
  Ni  Ni170     1.0  0.84074  0.01481  0.50000  1.0000
  Ni  Ni171     1.0  0.85185  0.53704  0.50000  1.0000
  Fe  Fe171     1.0  0.35185  0.08148  0.50000  1.0000
  Ni  Ni172     1.0  0.37407  0.37037  0.50000  1.0000
  Ni  Ni173     1.0  0.54074  0.47037  0.50000  1.0000
  Ni  Ni174     1.0  0.50741  0.38148  0.50000  1.0000
  Fe  Fe172     1.0  0.32963  0.95926  0.50000  1.0000
  Fe  Fe173     1.0  0.27407  0.53704  0.50000  1.0000
  Ni  Ni175     1.0  0.36296  0.82593  0.50000  1.0000
  Fe  Fe174     1.0  0.52963  0.29259  0.50000  1.0000
  Ni  Ni176     1.0  0.79630  0.29259  0.50000  1.0000
  Fe  Fe175     1.0  0.64074  0.34815  0.50000  1.0000
  Ni  Ni177     1.0  0.86296  0.34815  0.50000  1.0000
  Fe  Fe176     1.0  0.32963  0.14815  0.50000  1.0000
  Fe  Fe177     1.0  0.18519  0.73704  0.50000  1.0000
  Fe  Fe178     1.0  0.14074  0.80370  0.50000  1.0000
  Fe  Fe179     1.0  0.58519  0.75926  0.50000  1.0000
  Ni  Ni178     1.0  0.31852  0.33704  0.50000  1.0000
  Fe  Fe180     1.0  0.61852  0.57037  0.50000  1.0000
  Ni  Ni179     1.0  0.44074  0.08148  0.50000  1.0000
  Ni  Ni180     1.0  0.14074  0.33704  0.50000  1.0000
  Ni  Ni181     1.0  0.10741  0.50370  0.50000  1.0000
  Ni  Ni182     1.0  0.14074  0.69259  0.50000  1.0000
  Ni  Ni183     1.0  0.19630  0.30370  0.50000  1.0000
  Ni  Ni184     1.0  0.77407  0.71481  0.50000  1.0000
  Fe  Fe181     1.0  0.75185  0.72593  0.50000  1.0000
  Ni  Ni185     1.0  0.88519  0.89259  0.50000  1.0000
  Fe  Fe182     1.0  0.45185  0.22593  0.50000  1.0000
  Ni  Ni186     1.0  0.97407  0.32593  0.50000  1.0000
  Fe  Fe183     1.0  0.21852  0.97037  0.50000  1.0000
  Fe  Fe184     1.0  0.76296  0.07037  0.50000  1.0000
  Fe  Fe185     1.0  0.08519  0.14815  0.50000  1.0000
  Fe  Fe186     1.0  0.90741  0.50370  0.50000  1.0000
  Ni  Ni187     1.0  0.60741  0.09259  0.50000  1.0000
  Ni  Ni188     1.0  0.22963  0.78148  0.50000  1.0000
  Fe  Fe187     1.0  0.12963  0.43704  0.50000  1.0000
  Ni  Ni189     1.0  0.34074  0.87037  0.50000  1.0000
  Fe  Fe188     1.0  0.79630  0.97037  0.50000  1.0000
  Fe  Fe189     1.0  0.19630  0.33704  0.50000  1.0000
  Fe  Fe190     1.0  0.48519  0.02593  0.50000  1.0000
  Ni  Ni190     1.0  0.76296  0.89259  0.50000  1.0000
  Fe  Fe191     1.0  0.77407  0.25926  0.50000  1.0000
  Ni  Ni191     1.0  0.12963  0.72593  0.50000  1.0000
  Ni  Ni192     1.0  0.39630  0.40370  0.50000  1.0000
  Ni  Ni193     1.0  0.95185  0.04815  0.50000  1.0000
  Ni  Ni194     1.0  0.10741  0.43704  0.50000  1.0000
  Fe  Fe192     1.0  0.26296  0.17037  0.50000  1.0000
  Ni  Ni195     1.0  0.06296  0.64815  0.50000  1.0000
  Ni  Ni196     1.0  0.01852  0.02593  0.50000  1.0000
  Fe  Fe193     1.0  0.04074  0.35926  0.50000  1.0000
  Ni  Ni197     1.0  0.58519  0.89259  0.50000  1.0000
  Ni  Ni198     1.0  0.57407  0.57037  0.50000  1.0000
  Ni  Ni199     1.0  0.58519  0.84815  0.50000  1.0000
  Ni  Ni200     1.0  0.15185  0.50370  0.50000  1.0000
  Fe  Fe194     1.0  0.10741  0.47037  0.50000  1.0000
  Fe  Fe195     1.0  0.65185  0.91481  0.50000  1.0000
  Fe  Fe196     1.0  0.97407  0.39259  0.50000  1.0000
  Fe  Fe197     1.0  0.36296  0.80370  0.50000  1.0000
  Fe  Fe198     1.0  0.41852  0.47037  0.50000  1.0000
  Fe  Fe199     1.0  0.92963  0.14815  0.50000  1.0000
  Fe  Fe200     1.0  0.48519  0.39259  0.50000  1.0000
